<?xml version='1.0' encoding='UTF-8'?>
<routes><route id="route_E2TL_TL2N" edges="E2TL TL2N" /><route id="route_E2TL_TL2S" edges="E2TL TL2S" /><route id="route_E2TL_TL2W" edges="E2TL TL2W" /><route id="route_N2TL_TL2E" edges="N2TL TL2E" /><route id="route_N2TL_TL2S" edges="N2TL TL2S" /><route id="route_N2TL_TL2W" edges="N2TL TL2W" /><route id="route_S2TL_TL2E" edges="S2TL TL2E" /><route id="route_S2TL_TL2N" edges="S2TL TL2N" /><route id="route_S2TL_TL2W" edges="S2TL TL2W" /><route id="route_W2TL_TL2E" edges="W2TL TL2E" /><route id="route_W2TL_TL2N" edges="W2TL TL2N" /><route id="route_W2TL_TL2S" edges="W2TL TL2S" /><vType id="car" accel="2.6" decel="4.5" sigma="0.5" length="5" minGap="2.5" maxSpeed="50" /><vehicle id="trip_0" depart="35.0" route="route_W2TL_TL2S" departLane="random" departSpeed="10" type="car" /><vehicle id="trip_1" depart="108.0" route="route_W2TL_TL2N" departLane="random" departSpeed="10" type="car" /><vehicle id="trip_2" depart="114.0" route="route_E2TL_TL2S" departLane="random" departSpeed="10" type="car" /><vehicle id="trip_3" depart="116.0" route="route_E2TL_TL2S" departLane="random" departSpeed="10" type="car" /><vehicle id="trip_4" depart="130.0" route="route_W2TL_TL2E" departLane="random" departSpeed="10" type="car" /><vehicle id="trip_5" depart="135.0" route="route_S2TL_TL2W" departLane="random" departSpeed="10" type="car" /><vehicle id="trip_6" depart="138.0" route="route_S2TL_TL2N" departLane="random" departSpeed="10" type="car" /><vehicle id="trip_7" depart="145.0" route="route_N2TL_TL2S" departLane="random" departSpeed="10" type="car" /><vehicle id="trip_8" depart="153.0" route="route_S2TL_TL2N" departLane="random" departSpeed="10" type="car" /><vehicle id="trip_9" depart="164.0" route="route_S2TL_TL2N" departLane="random" departSpeed="10" type="car" /><vehicle id="trip_10" depart="166.0" route="route_S2TL_TL2N" departLane="random" departSpeed="10" type="car" /><vehicle id="trip_11" depart="167.0" route="route_E2TL_TL2W" departLane="random" departSpeed="10" type="car" /><vehicle id="trip_12" depart="170.0" route="route_N2TL_TL2S" departLane="random" departSpeed="10" type="car" /><vehicle id="trip_13" depart="178.0" route="route_N2TL_TL2S" departLane="random" departSpeed="10" type="car" /><vehicle id="trip_14" depart="178.0" route="route_S2TL_TL2W" departLane="random" departSpeed="10" type="car" /><vehicle id="trip_15" depart="181.0" route="route_W2TL_TL2S" departLane="random" departSpeed="10" type="car" /><vehicle id="trip_16" depart="183.0" route="route_W2TL_TL2N" departLane="random" departSpeed="10" type="car" /><vehicle id="trip_17" depart="189.0" route="route_S2TL_TL2E" departLane="random" departSpeed="10" type="car" /><vehicle id="trip_18" depart="189.0" route="route_N2TL_TL2S" departLane="random" departSpeed="10" type="car" /><vehicle id="trip_19" depart="201.0" route="route_N2TL_TL2E" departLane="random" departSpeed="10" type="car" /><vehicle id="trip_20" depart="213.0" route="route_E2TL_TL2N" departLane="random" departSpeed="10" type="car" /><vehicle id="trip_21" depart="214.0" route="route_E2TL_TL2N" departLane="random" departSpeed="10" type="car" /><vehicle id="trip_22" depart="223.0" route="route_N2TL_TL2W" departLane="random" departSpeed="10" type="car" /><vehicle id="trip_23" depart="223.0" route="route_N2TL_TL2S" departLane="random" departSpeed="10" type="car" /><vehicle id="trip_24" depart="230.0" route="route_N2TL_TL2S" departLane="random" departSpeed="10" type="car" /><vehicle id="trip_25" depart="234.0" route="route_W2TL_TL2E" departLane="random" departSpeed="10" type="car" /><vehicle id="trip_26" depart="239.0" route="route_S2TL_TL2E" departLane="random" departSpeed="10" type="car" /><vehicle id="trip_27" depart="240.0" route="route_S2TL_TL2N" departLane="random" departSpeed="10" type="car" /><vehicle id="trip_28" depart="246.0" route="route_E2TL_TL2W" departLane="random" departSpeed="10" type="car" /><vehicle id="trip_29" depart="252.0" route="route_E2TL_TL2N" departLane="random" departSpeed="10" type="car" /><vehicle id="trip_30" depart="259.0" route="route_N2TL_TL2S" departLane="random" departSpeed="10" type="car" /><vehicle id="trip_31" depart="266.0" route="route_E2TL_TL2W" departLane="random" departSpeed="10" type="car" /><vehicle id="trip_32" depart="277.0" route="route_S2TL_TL2E" departLane="random" departSpeed="10" type="car" /><vehicle id="trip_33" depart="281.0" route="route_W2TL_TL2S" departLane="random" departSpeed="10" type="car" /><vehicle id="trip_34" depart="281.0" route="route_S2TL_TL2N" departLane="random" departSpeed="10" type="car" /><vehicle id="trip_35" depart="287.0" route="route_E2TL_TL2W" departLane="random" departSpeed="10" type="car" /><vehicle id="trip_36" depart="295.0" route="route_W2TL_TL2E" departLane="random" departSpeed="10" type="car" /><vehicle id="trip_37" depart="295.0" route="route_W2TL_TL2E" departLane="random" departSpeed="10" type="car" /><vehicle id="trip_38" depart="295.0" route="route_S2TL_TL2W" departLane="random" departSpeed="10" type="car" /><vehicle id="trip_39" depart="299.0" route="route_W2TL_TL2N" departLane="random" departSpeed="10" type="car" /><vehicle id="trip_40" depart="308.0" route="route_W2TL_TL2E" departLane="random" departSpeed="10" type="car" /><vehicle id="trip_41" depart="309.0" route="route_W2TL_TL2E" departLane="random" departSpeed="10" type="car" /><vehicle id="trip_42" depart="311.0" route="route_N2TL_TL2S" departLane="random" departSpeed="10" type="car" /><vehicle id="trip_43" depart="312.0" route="route_W2TL_TL2S" departLane="random" departSpeed="10" type="car" /><vehicle id="trip_44" depart="313.0" route="route_W2TL_TL2S" departLane="random" departSpeed="10" type="car" /><vehicle id="trip_45" depart="314.0" route="route_E2TL_TL2W" departLane="random" departSpeed="10" type="car" /><vehicle id="trip_46" depart="317.0" route="route_W2TL_TL2E" departLane="random" departSpeed="10" type="car" /><vehicle id="trip_47" depart="318.0" route="route_S2TL_TL2W" departLane="random" departSpeed="10" type="car" /><vehicle id="trip_48" depart="319.0" route="route_N2TL_TL2W" departLane="random" departSpeed="10" type="car" /><vehicle id="trip_49" depart="320.0" route="route_S2TL_TL2E" departLane="random" departSpeed="10" type="car" /><vehicle id="trip_50" depart="320.0" route="route_N2TL_TL2W" departLane="random" departSpeed="10" type="car" /><vehicle id="trip_51" depart="328.0" route="route_W2TL_TL2N" departLane="random" departSpeed="10" type="car" /><vehicle id="trip_52" depart="339.0" route="route_S2TL_TL2E" departLane="random" departSpeed="10" type="car" /><vehicle id="trip_53" depart="340.0" route="route_W2TL_TL2E" departLane="random" departSpeed="10" type="car" /><vehicle id="trip_54" depart="340.0" route="route_N2TL_TL2S" departLane="random" departSpeed="10" type="car" /><vehicle id="trip_55" depart="340.0" route="route_W2TL_TL2E" departLane="random" departSpeed="10" type="car" /><vehicle id="trip_56" depart="344.0" route="route_W2TL_TL2E" departLane="random" departSpeed="10" type="car" /><vehicle id="trip_57" depart="344.0" route="route_N2TL_TL2W" departLane="random" departSpeed="10" type="car" /><vehicle id="trip_58" depart="351.0" route="route_S2TL_TL2N" departLane="random" departSpeed="10" type="car" /><vehicle id="trip_59" depart="352.0" route="route_W2TL_TL2N" departLane="random" departSpeed="10" type="car" /><vehicle id="trip_60" depart="352.0" route="route_S2TL_TL2W" departLane="random" departSpeed="10" type="car" /><vehicle id="trip_61" depart="354.0" route="route_N2TL_TL2W" departLane="random" departSpeed="10" type="car" /><vehicle id="trip_62" depart="358.0" route="route_E2TL_TL2W" departLane="random" departSpeed="10" type="car" /><vehicle id="trip_63" depart="359.0" route="route_N2TL_TL2S" departLane="random" departSpeed="10" type="car" /><vehicle id="trip_64" depart="363.0" route="route_S2TL_TL2N" departLane="random" departSpeed="10" type="car" /><vehicle id="trip_65" depart="364.0" route="route_E2TL_TL2W" departLane="random" departSpeed="10" type="car" /><vehicle id="trip_66" depart="370.0" route="route_W2TL_TL2N" departLane="random" departSpeed="10" type="car" /><vehicle id="trip_67" depart="373.0" route="route_N2TL_TL2E" departLane="random" departSpeed="10" type="car" /><vehicle id="trip_68" depart="375.0" route="route_W2TL_TL2N" departLane="random" departSpeed="10" type="car" /><vehicle id="trip_69" depart="377.0" route="route_N2TL_TL2S" departLane="random" departSpeed="10" type="car" /><vehicle id="trip_70" depart="382.0" route="route_W2TL_TL2S" departLane="random" departSpeed="10" type="car" /><vehicle id="trip_71" depart="384.0" route="route_S2TL_TL2W" departLane="random" departSpeed="10" type="car" /><vehicle id="trip_72" depart="384.0" route="route_S2TL_TL2E" departLane="random" departSpeed="10" type="car" /><vehicle id="trip_73" depart="386.0" route="route_S2TL_TL2E" departLane="random" departSpeed="10" type="car" /><vehicle id="trip_74" depart="392.0" route="route_S2TL_TL2N" departLane="random" departSpeed="10" type="car" /><vehicle id="trip_75" depart="397.0" route="route_S2TL_TL2N" departLane="random" departSpeed="10" type="car" /><vehicle id="trip_76" depart="398.0" route="route_N2TL_TL2S" departLane="random" departSpeed="10" type="car" /><vehicle id="trip_77" depart="403.0" route="route_E2TL_TL2W" departLane="random" departSpeed="10" type="car" /><vehicle id="trip_78" depart="406.0" route="route_S2TL_TL2E" departLane="random" departSpeed="10" type="car" /><vehicle id="trip_79" depart="410.0" route="route_W2TL_TL2N" departLane="random" departSpeed="10" type="car" /><vehicle id="trip_80" depart="419.0" route="route_S2TL_TL2N" departLane="random" departSpeed="10" type="car" /><vehicle id="trip_81" depart="420.0" route="route_E2TL_TL2S" departLane="random" departSpeed="10" type="car" /><vehicle id="trip_82" depart="425.0" route="route_W2TL_TL2E" departLane="random" departSpeed="10" type="car" /><vehicle id="trip_83" depart="427.0" route="route_S2TL_TL2W" departLane="random" departSpeed="10" type="car" /><vehicle id="trip_84" depart="427.0" route="route_W2TL_TL2N" departLane="random" departSpeed="10" type="car" /><vehicle id="trip_85" depart="432.0" route="route_E2TL_TL2W" departLane="random" departSpeed="10" type="car" /><vehicle id="trip_86" depart="438.0" route="route_S2TL_TL2W" departLane="random" departSpeed="10" type="car" /><vehicle id="trip_87" depart="438.0" route="route_E2TL_TL2S" departLane="random" departSpeed="10" type="car" /><vehicle id="trip_88" depart="446.0" route="route_S2TL_TL2N" departLane="random" departSpeed="10" type="car" /><vehicle id="trip_89" depart="447.0" route="route_N2TL_TL2E" departLane="random" departSpeed="10" type="car" /><vehicle id="trip_90" depart="453.0" route="route_E2TL_TL2W" departLane="random" departSpeed="10" type="car" /><vehicle id="trip_91" depart="460.0" route="route_W2TL_TL2E" departLane="random" departSpeed="10" type="car" /><vehicle id="trip_92" depart="462.0" route="route_E2TL_TL2W" departLane="random" departSpeed="10" type="car" /><vehicle id="trip_93" depart="465.0" route="route_S2TL_TL2E" departLane="random" departSpeed="10" type="car" /><vehicle id="trip_94" depart="466.0" route="route_W2TL_TL2E" departLane="random" departSpeed="10" type="car" /><vehicle id="trip_95" depart="467.0" route="route_E2TL_TL2W" departLane="random" departSpeed="10" type="car" /><vehicle id="trip_96" depart="470.0" route="route_E2TL_TL2W" departLane="random" departSpeed="10" type="car" /><vehicle id="trip_97" depart="471.0" route="route_W2TL_TL2E" departLane="random" departSpeed="10" type="car" /><vehicle id="trip_98" depart="476.0" route="route_N2TL_TL2S" departLane="random" departSpeed="10" type="car" /><vehicle id="trip_99" depart="476.0" route="route_S2TL_TL2W" departLane="random" departSpeed="10" type="car" /><vehicle id="trip_100" depart="479.0" route="route_E2TL_TL2N" departLane="random" departSpeed="10" type="car" /><vehicle id="trip_101" depart="483.0" route="route_N2TL_TL2S" departLane="random" departSpeed="10" type="car" /><vehicle id="trip_102" depart="489.0" route="route_E2TL_TL2W" departLane="random" departSpeed="10" type="car" /><vehicle id="trip_103" depart="491.0" route="route_S2TL_TL2N" departLane="random" departSpeed="10" type="car" /><vehicle id="trip_104" depart="493.0" route="route_E2TL_TL2S" departLane="random" departSpeed="10" type="car" /><vehicle id="trip_105" depart="494.0" route="route_W2TL_TL2S" departLane="random" departSpeed="10" type="car" /><vehicle id="trip_106" depart="495.0" route="route_E2TL_TL2N" departLane="random" departSpeed="10" type="car" /><vehicle id="trip_107" depart="496.0" route="route_S2TL_TL2W" departLane="random" departSpeed="10" type="car" /><vehicle id="trip_108" depart="498.0" route="route_E2TL_TL2N" departLane="random" departSpeed="10" type="car" /><vehicle id="trip_109" depart="498.0" route="route_N2TL_TL2E" departLane="random" departSpeed="10" type="car" /><vehicle id="trip_110" depart="499.0" route="route_W2TL_TL2E" departLane="random" departSpeed="10" type="car" /><vehicle id="trip_111" depart="499.0" route="route_E2TL_TL2W" departLane="random" departSpeed="10" type="car" /><vehicle id="trip_112" depart="501.0" route="route_E2TL_TL2W" departLane="random" departSpeed="10" type="car" /><vehicle id="trip_113" depart="501.0" route="route_S2TL_TL2N" departLane="random" departSpeed="10" type="car" /><vehicle id="trip_114" depart="505.0" route="route_N2TL_TL2S" departLane="random" departSpeed="10" type="car" /><vehicle id="trip_115" depart="507.0" route="route_E2TL_TL2N" departLane="random" departSpeed="10" type="car" /><vehicle id="trip_116" depart="508.0" route="route_W2TL_TL2S" departLane="random" departSpeed="10" type="car" /><vehicle id="trip_117" depart="511.0" route="route_E2TL_TL2W" departLane="random" departSpeed="10" type="car" /><vehicle id="trip_118" depart="512.0" route="route_E2TL_TL2N" departLane="random" departSpeed="10" type="car" /><vehicle id="trip_119" depart="513.0" route="route_N2TL_TL2S" departLane="random" departSpeed="10" type="car" /><vehicle id="trip_120" depart="515.0" route="route_S2TL_TL2N" departLane="random" departSpeed="10" type="car" /><vehicle id="trip_121" depart="519.0" route="route_S2TL_TL2W" departLane="random" departSpeed="10" type="car" /><vehicle id="trip_122" depart="520.0" route="route_E2TL_TL2W" departLane="random" departSpeed="10" type="car" /><vehicle id="trip_123" depart="521.0" route="route_N2TL_TL2S" departLane="random" departSpeed="10" type="car" /><vehicle id="trip_124" depart="522.0" route="route_E2TL_TL2N" departLane="random" departSpeed="10" type="car" /><vehicle id="trip_125" depart="527.0" route="route_N2TL_TL2S" departLane="random" departSpeed="10" type="car" /><vehicle id="trip_126" depart="528.0" route="route_W2TL_TL2E" departLane="random" departSpeed="10" type="car" /><vehicle id="trip_127" depart="529.0" route="route_S2TL_TL2W" departLane="random" departSpeed="10" type="car" /><vehicle id="trip_128" depart="534.0" route="route_W2TL_TL2N" departLane="random" departSpeed="10" type="car" /><vehicle id="trip_129" depart="538.0" route="route_W2TL_TL2E" departLane="random" departSpeed="10" type="car" /><vehicle id="trip_130" depart="539.0" route="route_W2TL_TL2E" departLane="random" departSpeed="10" type="car" /><vehicle id="trip_131" depart="539.0" route="route_S2TL_TL2W" departLane="random" departSpeed="10" type="car" /><vehicle id="trip_132" depart="543.0" route="route_N2TL_TL2W" departLane="random" departSpeed="10" type="car" /><vehicle id="trip_133" depart="548.0" route="route_E2TL_TL2W" departLane="random" departSpeed="10" type="car" /><vehicle id="trip_134" depart="558.0" route="route_S2TL_TL2N" departLane="random" departSpeed="10" type="car" /><vehicle id="trip_135" depart="558.0" route="route_N2TL_TL2S" departLane="random" departSpeed="10" type="car" /><vehicle id="trip_136" depart="564.0" route="route_E2TL_TL2W" departLane="random" departSpeed="10" type="car" /><vehicle id="trip_137" depart="566.0" route="route_N2TL_TL2S" departLane="random" departSpeed="10" type="car" /><vehicle id="trip_138" depart="566.0" route="route_W2TL_TL2E" departLane="random" departSpeed="10" type="car" /><vehicle id="trip_139" depart="568.0" route="route_E2TL_TL2W" departLane="random" departSpeed="10" type="car" /><vehicle id="trip_140" depart="568.0" route="route_S2TL_TL2N" departLane="random" departSpeed="10" type="car" /><vehicle id="trip_141" depart="569.0" route="route_N2TL_TL2S" departLane="random" departSpeed="10" type="car" /><vehicle id="trip_142" depart="569.0" route="route_S2TL_TL2E" departLane="random" departSpeed="10" type="car" /><vehicle id="trip_143" depart="572.0" route="route_E2TL_TL2W" departLane="random" departSpeed="10" type="car" /><vehicle id="trip_144" depart="572.0" route="route_W2TL_TL2S" departLane="random" departSpeed="10" type="car" /><vehicle id="trip_145" depart="574.0" route="route_N2TL_TL2E" departLane="random" departSpeed="10" type="car" /><vehicle id="trip_146" depart="574.0" route="route_S2TL_TL2N" departLane="random" departSpeed="10" type="car" /><vehicle id="trip_147" depart="579.0" route="route_N2TL_TL2S" departLane="random" departSpeed="10" type="car" /><vehicle id="trip_148" depart="580.0" route="route_E2TL_TL2N" departLane="random" departSpeed="10" type="car" /><vehicle id="trip_149" depart="581.0" route="route_S2TL_TL2N" departLane="random" departSpeed="10" type="car" /><vehicle id="trip_150" depart="581.0" route="route_E2TL_TL2W" departLane="random" departSpeed="10" type="car" /><vehicle id="trip_151" depart="585.0" route="route_E2TL_TL2S" departLane="random" departSpeed="10" type="car" /><vehicle id="trip_152" depart="585.0" route="route_E2TL_TL2N" departLane="random" departSpeed="10" type="car" /><vehicle id="trip_153" depart="588.0" route="route_E2TL_TL2W" departLane="random" departSpeed="10" type="car" /><vehicle id="trip_154" depart="589.0" route="route_E2TL_TL2S" departLane="random" departSpeed="10" type="car" /><vehicle id="trip_155" depart="590.0" route="route_S2TL_TL2N" departLane="random" departSpeed="10" type="car" /><vehicle id="trip_156" depart="591.0" route="route_S2TL_TL2E" departLane="random" departSpeed="10" type="car" /><vehicle id="trip_157" depart="592.0" route="route_W2TL_TL2S" departLane="random" departSpeed="10" type="car" /><vehicle id="trip_158" depart="594.0" route="route_W2TL_TL2N" departLane="random" departSpeed="10" type="car" /><vehicle id="trip_159" depart="597.0" route="route_W2TL_TL2S" departLane="random" departSpeed="10" type="car" /><vehicle id="trip_160" depart="600.0" route="route_E2TL_TL2W" departLane="random" departSpeed="10" type="car" /><vehicle id="trip_161" depart="601.0" route="route_N2TL_TL2S" departLane="random" departSpeed="10" type="car" /><vehicle id="trip_162" depart="602.0" route="route_N2TL_TL2E" departLane="random" departSpeed="10" type="car" /><vehicle id="trip_163" depart="602.0" route="route_S2TL_TL2N" departLane="random" departSpeed="10" type="car" /><vehicle id="trip_164" depart="602.0" route="route_S2TL_TL2N" departLane="random" departSpeed="10" type="car" /><vehicle id="trip_165" depart="602.0" route="route_W2TL_TL2E" departLane="random" departSpeed="10" type="car" /><vehicle id="trip_166" depart="603.0" route="route_S2TL_TL2W" departLane="random" departSpeed="10" type="car" /><vehicle id="trip_167" depart="604.0" route="route_N2TL_TL2E" departLane="random" departSpeed="10" type="car" /><vehicle id="trip_168" depart="606.0" route="route_N2TL_TL2S" departLane="random" departSpeed="10" type="car" /><vehicle id="trip_169" depart="607.0" route="route_S2TL_TL2E" departLane="random" departSpeed="10" type="car" /><vehicle id="trip_170" depart="609.0" route="route_E2TL_TL2N" departLane="random" departSpeed="10" type="car" /><vehicle id="trip_171" depart="614.0" route="route_E2TL_TL2N" departLane="random" departSpeed="10" type="car" /><vehicle id="trip_172" depart="620.0" route="route_N2TL_TL2S" departLane="random" departSpeed="10" type="car" /><vehicle id="trip_173" depart="621.0" route="route_E2TL_TL2W" departLane="random" departSpeed="10" type="car" /><vehicle id="trip_174" depart="626.0" route="route_S2TL_TL2W" departLane="random" departSpeed="10" type="car" /><vehicle id="trip_175" depart="629.0" route="route_E2TL_TL2W" departLane="random" departSpeed="10" type="car" /><vehicle id="trip_176" depart="630.0" route="route_E2TL_TL2S" departLane="random" departSpeed="10" type="car" /><vehicle id="trip_177" depart="632.0" route="route_E2TL_TL2W" departLane="random" departSpeed="10" type="car" /><vehicle id="trip_178" depart="633.0" route="route_E2TL_TL2W" departLane="random" departSpeed="10" type="car" /><vehicle id="trip_179" depart="633.0" route="route_E2TL_TL2W" departLane="random" departSpeed="10" type="car" /><vehicle id="trip_180" depart="638.0" route="route_S2TL_TL2E" departLane="random" departSpeed="10" type="car" /><vehicle id="trip_181" depart="641.0" route="route_N2TL_TL2W" departLane="random" departSpeed="10" type="car" /><vehicle id="trip_182" depart="643.0" route="route_N2TL_TL2S" departLane="random" departSpeed="10" type="car" /><vehicle id="trip_183" depart="647.0" route="route_S2TL_TL2N" departLane="random" departSpeed="10" type="car" /><vehicle id="trip_184" depart="649.0" route="route_E2TL_TL2W" departLane="random" departSpeed="10" type="car" /><vehicle id="trip_185" depart="650.0" route="route_W2TL_TL2N" departLane="random" departSpeed="10" type="car" /><vehicle id="trip_186" depart="653.0" route="route_W2TL_TL2S" departLane="random" departSpeed="10" type="car" /><vehicle id="trip_187" depart="655.0" route="route_S2TL_TL2W" departLane="random" departSpeed="10" type="car" /><vehicle id="trip_188" depart="655.0" route="route_N2TL_TL2S" departLane="random" departSpeed="10" type="car" /><vehicle id="trip_189" depart="659.0" route="route_S2TL_TL2E" departLane="random" departSpeed="10" type="car" /><vehicle id="trip_190" depart="660.0" route="route_S2TL_TL2N" departLane="random" departSpeed="10" type="car" /><vehicle id="trip_191" depart="660.0" route="route_E2TL_TL2S" departLane="random" departSpeed="10" type="car" /><vehicle id="trip_192" depart="664.0" route="route_N2TL_TL2S" departLane="random" departSpeed="10" type="car" /><vehicle id="trip_193" depart="665.0" route="route_S2TL_TL2E" departLane="random" departSpeed="10" type="car" /><vehicle id="trip_194" depart="666.0" route="route_E2TL_TL2W" departLane="random" departSpeed="10" type="car" /><vehicle id="trip_195" depart="666.0" route="route_E2TL_TL2S" departLane="random" departSpeed="10" type="car" /><vehicle id="trip_196" depart="667.0" route="route_W2TL_TL2E" departLane="random" departSpeed="10" type="car" /><vehicle id="trip_197" depart="668.0" route="route_N2TL_TL2S" departLane="random" departSpeed="10" type="car" /><vehicle id="trip_198" depart="668.0" route="route_S2TL_TL2E" departLane="random" departSpeed="10" type="car" /><vehicle id="trip_199" depart="669.0" route="route_W2TL_TL2N" departLane="random" departSpeed="10" type="car" /><vehicle id="trip_200" depart="670.0" route="route_S2TL_TL2N" departLane="random" departSpeed="10" type="car" /><vehicle id="trip_201" depart="674.0" route="route_N2TL_TL2E" departLane="random" departSpeed="10" type="car" /><vehicle id="trip_202" depart="676.0" route="route_W2TL_TL2S" departLane="random" departSpeed="10" type="car" /><vehicle id="trip_203" depart="677.0" route="route_N2TL_TL2S" departLane="random" departSpeed="10" type="car" /><vehicle id="trip_204" depart="679.0" route="route_E2TL_TL2N" departLane="random" departSpeed="10" type="car" /><vehicle id="trip_205" depart="679.0" route="route_S2TL_TL2N" departLane="random" departSpeed="10" type="car" /><vehicle id="trip_206" depart="683.0" route="route_E2TL_TL2W" departLane="random" departSpeed="10" type="car" /><vehicle id="trip_207" depart="683.0" route="route_N2TL_TL2S" departLane="random" departSpeed="10" type="car" /><vehicle id="trip_208" depart="683.0" route="route_W2TL_TL2E" departLane="random" departSpeed="10" type="car" /><vehicle id="trip_209" depart="684.0" route="route_S2TL_TL2N" departLane="random" departSpeed="10" type="car" /><vehicle id="trip_210" depart="684.0" route="route_E2TL_TL2N" departLane="random" departSpeed="10" type="car" /><vehicle id="trip_211" depart="688.0" route="route_N2TL_TL2W" departLane="random" departSpeed="10" type="car" /><vehicle id="trip_212" depart="689.0" route="route_N2TL_TL2S" departLane="random" departSpeed="10" type="car" /><vehicle id="trip_213" depart="690.0" route="route_N2TL_TL2W" departLane="random" departSpeed="10" type="car" /><vehicle id="trip_214" depart="690.0" route="route_E2TL_TL2W" departLane="random" departSpeed="10" type="car" /><vehicle id="trip_215" depart="690.0" route="route_S2TL_TL2N" departLane="random" departSpeed="10" type="car" /><vehicle id="trip_216" depart="695.0" route="route_E2TL_TL2S" departLane="random" departSpeed="10" type="car" /><vehicle id="trip_217" depart="695.0" route="route_N2TL_TL2E" departLane="random" departSpeed="10" type="car" /><vehicle id="trip_218" depart="697.0" route="route_N2TL_TL2S" departLane="random" departSpeed="10" type="car" /><vehicle id="trip_219" depart="698.0" route="route_W2TL_TL2N" departLane="random" departSpeed="10" type="car" /><vehicle id="trip_220" depart="704.0" route="route_E2TL_TL2S" departLane="random" departSpeed="10" type="car" /><vehicle id="trip_221" depart="705.0" route="route_W2TL_TL2E" departLane="random" departSpeed="10" type="car" /><vehicle id="trip_222" depart="705.0" route="route_E2TL_TL2W" departLane="random" departSpeed="10" type="car" /><vehicle id="trip_223" depart="707.0" route="route_S2TL_TL2N" departLane="random" departSpeed="10" type="car" /><vehicle id="trip_224" depart="709.0" route="route_N2TL_TL2S" departLane="random" departSpeed="10" type="car" /><vehicle id="trip_225" depart="710.0" route="route_N2TL_TL2W" departLane="random" departSpeed="10" type="car" /><vehicle id="trip_226" depart="712.0" route="route_W2TL_TL2E" departLane="random" departSpeed="10" type="car" /><vehicle id="trip_227" depart="712.0" route="route_N2TL_TL2S" departLane="random" departSpeed="10" type="car" /><vehicle id="trip_228" depart="713.0" route="route_E2TL_TL2W" departLane="random" departSpeed="10" type="car" /><vehicle id="trip_229" depart="714.0" route="route_E2TL_TL2W" departLane="random" departSpeed="10" type="car" /><vehicle id="trip_230" depart="715.0" route="route_E2TL_TL2S" departLane="random" departSpeed="10" type="car" /><vehicle id="trip_231" depart="716.0" route="route_W2TL_TL2E" departLane="random" departSpeed="10" type="car" /><vehicle id="trip_232" depart="719.0" route="route_S2TL_TL2N" departLane="random" departSpeed="10" type="car" /><vehicle id="trip_233" depart="725.0" route="route_W2TL_TL2S" departLane="random" departSpeed="10" type="car" /><vehicle id="trip_234" depart="726.0" route="route_S2TL_TL2N" departLane="random" departSpeed="10" type="car" /><vehicle id="trip_235" depart="728.0" route="route_E2TL_TL2N" departLane="random" departSpeed="10" type="car" /><vehicle id="trip_236" depart="730.0" route="route_S2TL_TL2N" departLane="random" departSpeed="10" type="car" /><vehicle id="trip_237" depart="731.0" route="route_W2TL_TL2E" departLane="random" departSpeed="10" type="car" /><vehicle id="trip_238" depart="734.0" route="route_S2TL_TL2W" departLane="random" departSpeed="10" type="car" /><vehicle id="trip_239" depart="734.0" route="route_N2TL_TL2W" departLane="random" departSpeed="10" type="car" /><vehicle id="trip_240" depart="736.0" route="route_N2TL_TL2S" departLane="random" departSpeed="10" type="car" /><vehicle id="trip_241" depart="738.0" route="route_N2TL_TL2W" departLane="random" departSpeed="10" type="car" /><vehicle id="trip_242" depart="738.0" route="route_W2TL_TL2E" departLane="random" departSpeed="10" type="car" /><vehicle id="trip_243" depart="739.0" route="route_N2TL_TL2E" departLane="random" departSpeed="10" type="car" /><vehicle id="trip_244" depart="741.0" route="route_S2TL_TL2E" departLane="random" departSpeed="10" type="car" /><vehicle id="trip_245" depart="745.0" route="route_N2TL_TL2W" departLane="random" departSpeed="10" type="car" /><vehicle id="trip_246" depart="745.0" route="route_W2TL_TL2S" departLane="random" departSpeed="10" type="car" /><vehicle id="trip_247" depart="746.0" route="route_W2TL_TL2E" departLane="random" departSpeed="10" type="car" /><vehicle id="trip_248" depart="746.0" route="route_W2TL_TL2N" departLane="random" departSpeed="10" type="car" /><vehicle id="trip_249" depart="747.0" route="route_W2TL_TL2E" departLane="random" departSpeed="10" type="car" /><vehicle id="trip_250" depart="748.0" route="route_N2TL_TL2E" departLane="random" departSpeed="10" type="car" /><vehicle id="trip_251" depart="749.0" route="route_E2TL_TL2W" departLane="random" departSpeed="10" type="car" /><vehicle id="trip_252" depart="749.0" route="route_N2TL_TL2W" departLane="random" departSpeed="10" type="car" /><vehicle id="trip_253" depart="754.0" route="route_N2TL_TL2E" departLane="random" departSpeed="10" type="car" /><vehicle id="trip_254" depart="758.0" route="route_N2TL_TL2S" departLane="random" departSpeed="10" type="car" /><vehicle id="trip_255" depart="763.0" route="route_S2TL_TL2N" departLane="random" departSpeed="10" type="car" /><vehicle id="trip_256" depart="765.0" route="route_W2TL_TL2N" departLane="random" departSpeed="10" type="car" /><vehicle id="trip_257" depart="766.0" route="route_S2TL_TL2N" departLane="random" departSpeed="10" type="car" /><vehicle id="trip_258" depart="767.0" route="route_W2TL_TL2E" departLane="random" departSpeed="10" type="car" /><vehicle id="trip_259" depart="771.0" route="route_E2TL_TL2S" departLane="random" departSpeed="10" type="car" /><vehicle id="trip_260" depart="772.0" route="route_N2TL_TL2S" departLane="random" departSpeed="10" type="car" /><vehicle id="trip_261" depart="772.0" route="route_W2TL_TL2S" departLane="random" departSpeed="10" type="car" /><vehicle id="trip_262" depart="778.0" route="route_E