<?xml version='1.0' encoding='UTF-8'?>
<routes><route id="route_E2TL_TL2N" edges="E2TL TL2N" /><route id="route_E2TL_TL2S" edges="E2TL TL2S" /><route id="route_E2TL_TL2W" edges="E2TL TL2W" /><route id="route_N2TL_TL2E" edges="N2TL TL2E" /><route id="route_N2TL_TL2S" edges="N2TL TL2S" /><route id="route_N2TL_TL2W" edges="N2TL TL2W" /><route id="route_S2TL_TL2E" edges="S2TL TL2E" /><route id="route_S2TL_TL2N" edges="S2TL TL2N" /><route id="route_S2TL_TL2W" edges="S2TL TL2W" /><route id="route_W2TL_TL2E" edges="W2TL TL2E" /><route id="route_W2TL_TL2N" edges="W2TL TL2N" /><route id="route_W2TL_TL2S" edges="W2TL TL2S" /><vType id="car" accel="2.6" decel="4.5" sigma="0.5" length="5" minGap="2.5" maxSpeed="50" /><vehicle id="trip_0" depart="23.0" route="route_W2TL_TL2E" departLane="random" departSpeed="10" type="car" /><vehicle id="trip_1" depart="47.0" route="route_W2TL_TL2E" departLane="random" departSpeed="10" type="car" /><vehicle id="trip_2" depart="95.0" route="route_N2TL_TL2S" departLane="random" departSpeed="10" type="car" /><vehicle id="trip_3" depart="95.0" route="route_N2TL_TL2E" departLane="random" departSpeed="10" type="car" /><vehicle id="trip_4" depart="115.0" route="route_S2TL_TL2E" departLane="random" departSpeed="10" type="car" /><vehicle id="trip_5" depart="115.0" route="route_N2TL_TL2S" departLane="random" departSpeed="10" type="car" /><vehicle id="trip_6" depart="123.0" route="route_W2TL_TL2E" departLane="random" departSpeed="10" type="car" /><vehicle id="trip_7" depart="125.0" route="route_N2TL_TL2S" departLane="random" departSpeed="10" type="car" /><vehicle id="trip_8" depart="131.0" route="route_N2TL_TL2W" departLane="random" departSpeed="10" type="car" /><vehicle id="trip_9" depart="134.0" route="route_S2TL_TL2N" departLane="random" departSpeed="10" type="car" /><vehicle id="trip_10" depart="136.0" route="route_W2TL_TL2N" departLane="random" departSpeed="10" type="car" /><vehicle id="trip_11" depart="147.0" route="route_S2TL_TL2E" departLane="random" departSpeed="10" type="car" /><vehicle id="trip_12" depart="151.0" route="route_N2TL_TL2E" departLane="random" departSpeed="10" type="car" /><vehicle id="trip_13" depart="157.0" route="route_W2TL_TL2E" departLane="random" departSpeed="10" type="car" /><vehicle id="trip_14" depart="159.0" route="route_S2TL_TL2N" departLane="random" departSpeed="10" type="car" /><vehicle id="trip_15" depart="163.0" route="route_N2TL_TL2E" departLane="random" departSpeed="10" type="car" /><vehicle id="trip_16" depart="173.0" route="route_W2TL_TL2N" departLane="random" departSpeed="10" type="car" /><vehicle id="trip_17" depart="183.0" route="route_W2TL_TL2S" departLane="random" departSpeed="10" type="car" /><vehicle id="trip_18" depart="188.0" route="route_W2TL_TL2E" departLane="random" departSpeed="10" type="car" /><vehicle id="trip_19" depart="201.0" route="route_W2TL_TL2N" departLane="random" departSpeed="10" type="car" /><vehicle id="trip_20" depart="202.0" route="route_N2TL_TL2S" departLane="random" departSpeed="10" type="car" /><vehicle id="trip_21" depart="204.0" route="route_S2TL_TL2W" departLane="random" departSpeed="10" type="car" /><vehicle id="trip_22" depart="206.0" route="route_W2TL_TL2E" departLane="random" departSpeed="10" type="car" /><vehicle id="trip_23" depart="208.0" route="route_S2TL_TL2N" departLane="random" departSpeed="10" type="car" /><vehicle id="trip_24" depart="210.0" route="route_N2TL_TL2W" departLane="random" departSpeed="10" type="car" /><vehicle id="trip_25" depart="210.0" route="route_E2TL_TL2W" departLane="random" departSpeed="10" type="car" /><vehicle id="trip_26" depart="211.0" route="route_N2TL_TL2S" departLane="random" departSpeed="10" type="car" /><vehicle id="trip_27" depart="216.0" route="route_S2TL_TL2N" departLane="random" departSpeed="10" type="car" /><vehicle id="trip_28" depart="218.0" route="route_W2TL_TL2N" departLane="random" departSpeed="10" type="car" /><vehicle id="trip_29" depart="241.0" route="route_W2TL_TL2S" departLane="random" departSpeed="10" type="car" /><vehicle id="trip_30" depart="271.0" route="route_N2TL_TL2W" departLane="random" departSpeed="10" type="car" /><vehicle id="trip_31" depart="280.0" route="route_W2TL_TL2E" departLane="random" departSpeed="10" type="car" /><vehicle id="trip_32" depart="298.0" route="route_N2TL_TL2E" departLane="random" departSpeed="10" type="car" /><vehicle id="trip_33" depart="303.0" route="route_W2TL_TL2E" departLane="random" departSpeed="10" type="car" /><vehicle id="trip_34" depart="303.0" route="route_S2TL_TL2E" departLane="random" departSpeed="10" type="car" /><vehicle id="trip_35" depart="308.0" route="route_E2TL_TL2N" departLane="random" departSpeed="10" type="car" /><vehicle id="trip_36" depart="308.0" route="route_S2TL_TL2W" departLane="random" departSpeed="10" type="car" /><vehicle id="trip_37" depart="309.0" route="route_N2TL_TL2S" departLane="random" departSpeed="10" type="car" /><vehicle id="trip_38" depart="313.0" route="route_W2TL_TL2E" departLane="random" departSpeed="10" type="car" /><vehicle id="trip_39" depart="313.0" route="route_S2TL_TL2N" departLane="random" departSpeed="10" type="car" /><vehicle id="trip_40" depart="313.0" route="route_E2TL_TL2N" departLane="random" departSpeed="10" type="car" /><vehicle id="trip_41" depart="316.0" route="route_N2TL_TL2W" departLane="random" departSpeed="10" type="car" /><vehicle id="trip_42" depart="323.0" route="route_W2TL_TL2E" departLane="random" departSpeed="10" type="car" /><vehicle id="trip_43" depart="330.0" route="route_E2TL_TL2W" departLane="random" departSpeed="10" type="car" /><vehicle id="trip_44" depart="330.0" route="route_N2TL_TL2S" departLane="random" departSpeed="10" type="car" /><vehicle id="trip_45" depart="331.0" route="route_W2TL_TL2E" departLane="random" departSpeed="10" type="car" /><vehicle id="trip_46" depart="333.0" route="route_E2TL_TL2W" departLane="random" departSpeed="10" type="car" /><vehicle id="trip_47" depart="340.0" route="route_S2TL_TL2N" departLane="random" departSpeed="10" type="car" /><vehicle id="trip_48" depart="340.0" route="route_E2TL_TL2W" departLane="random" departSpeed="10" type="car" /><vehicle id="trip_49" depart="349.0" route="route_W2TL_TL2S" departLane="random" departSpeed="10" type="car" /><vehicle id="trip_50" depart="355.0" route="route_W2TL_TL2E" departLane="random" departSpeed="10" type="car" /><vehicle id="trip_51" depart="356.0" route="route_N2TL_TL2S" departLane="random" departSpeed="10" type="car" /><vehicle id="trip_52" depart="361.0" route="route_E2TL_TL2S" departLane="random" departSpeed="10" type="car" /><vehicle id="trip_53" depart="365.0" route="route_N2TL_TL2S" departLane="random" departSpeed="10" type="car" /><vehicle id="trip_54" depart="369.0" route="route_S2TL_TL2E" departLane="random" departSpeed="10" type="car" /><vehicle id="trip_55" depart="371.0" route="route_W2TL_TL2N" departLane="random" departSpeed="10" type="car" /><vehicle id="trip_56" depart="377.0" route="route_E2TL_TL2W" departLane="random" departSpeed="10" type="car" /><vehicle id="trip_57" depart="377.0" route="route_S2TL_TL2N" departLane="random" departSpeed="10" type="car" /><vehicle id="trip_58" depart="379.0" route="route_S2TL_TL2W" departLane="random" departSpeed="10" type="car" /><vehicle id="trip_59" depart="380.0" route="route_S2TL_TL2E" departLane="random" departSpeed="10" type="car" /><vehicle id="trip_60" depart="382.0" route="route_W2TL_TL2E" departLane="random" departSpeed="10" type="car" /><vehicle id="trip_61" depart="384.0" route="route_S2TL_TL2E" departLane="random" departSpeed="10" type="car" /><vehicle id="trip_62" depart="386.0" route="route_W2TL_TL2S" departLane="random" departSpeed="10" type="car" /><vehicle id="trip_63" depart="386.0" route="route_S2TL_TL2N" departLane="random" departSpeed="10" type="car" /><vehicle id="trip_64" depart="388.0" route="route_S2TL_TL2N" departLane="random" departSpeed="10" type="car" /><vehicle id="trip_65" depart="391.0" route="route_N2TL_TL2S" departLane="random" departSpeed="10" type="car" /><vehicle id="trip_66" depart="392.0" route="route_S2TL_TL2N" departLane="random" departSpeed="10" type="car" /><vehicle id="trip_67" depart="393.0" route="route_N2TL_TL2S" departLane="random" departSpeed="10" type="car" /><vehicle id="trip_68" depart="399.0" route="route_S2TL_TL2N" departLane="random" departSpeed="10" type="car" /><vehicle id="trip_69" depart="401.0" route="route_N2TL_TL2E" departLane="random" departSpeed="10" type="car" /><vehicle id="trip_70" depart="411.0" route="route_E2TL_TL2W" departLane="random" departSpeed="10" type="car" /><vehicle id="trip_71" depart="414.0" route="route_E2TL_TL2W" departLane="random" departSpeed="10" type="car" /><vehicle id="trip_72" depart="414.0" route="route_S2TL_TL2N" departLane="random" departSpeed="10" type="car" /><vehicle id="trip_73" depart="414.0" route="route_S2TL_TL2N" departLane="random" departSpeed="10" type="car" /><vehicle id="trip_74" depart="417.0" route="route_N2TL_TL2W" departLane="random" departSpeed="10" type="car" /><vehicle id="trip_75" depart="417.0" route="route_E2TL_TL2S" departLane="random" departSpeed="10" type="car" /><vehicle id="trip_76" depart="420.0" route="route_W2TL_TL2E" departLane="random" departSpeed="10" type="car" /><vehicle id="trip_77" depart="425.0" route="route_W2TL_TL2E" departLane="random" departSpeed="10" type="car" /><vehicle id="trip_78" depart="426.0" route="route_W2TL_TL2N" departLane="random" departSpeed="10" type="car" /><vehicle id="trip_79" depart="428.0" route="route_W2TL_TL2E" departLane="random" departSpeed="10" type="car" /><vehicle id="trip_80" depart="430.0" route="route_W2TL_TL2E" departLane="random" departSpeed="10" type="car" /><vehicle id="trip_81" depart="436.0" route="route_W2TL_TL2N" departLane="random" departSpeed="10" type="car" /><vehicle id="trip_82" depart="438.0" route="route_S2TL_TL2E" departLane="random" departSpeed="10" type="car" /><vehicle id="trip_83" depart="441.0" route="route_N2TL_TL2S" departLane="random" departSpeed="10" type="car" /><vehicle id="trip_84" depart="442.0" route="route_S2TL_TL2W" departLane="random" departSpeed="10" type="car" /><vehicle id="trip_85" depart="442.0" route="route_N2TL_TL2E" departLane="random" departSpeed="10" type="car" /><vehicle id="trip_86" depart="445.0" route="route_W2TL_TL2E" departLane="random" departSpeed="10" type="car" /><vehicle id="trip_87" depart="447.0" route="route_W2TL_TL2E" departLane="random" departSpeed="10" type="car" /><vehicle id="trip_88" depart="448.0" route="route_W2TL_TL2E" departLane="random" departSpeed="10" type="car" /><vehicle id="trip_89" depart="448.0" route="route_S2TL_TL2N" departLane="random" departSpeed="10" type="car" /><vehicle id="trip_90" depart="449.0" route="route_W2TL_TL2N" departLane="random" departSpeed="10" type="car" /><vehicle id="trip_91" depart="449.0" route="route_S2TL_TL2N" departLane="random" departSpeed="10" type="car" /><vehicle id="trip_92" depart="453.0" route="route_N2TL_TL2W" departLane="random" departSpeed="10" type="car" /><vehicle id="trip_93" depart="454.0" route="route_S2TL_TL2N" departLane="random" departSpeed="10" type="car" /><vehicle id="trip_94" depart="458.0" route="route_W2TL_TL2S" departLane="random" departSpeed="10" type="car" /><vehicle id="trip_95" depart="458.0" route="route_W2TL_TL2N" departLane="random" departSpeed="10" type="car" /><vehicle id="trip_96" depart="461.0" route="route_W2TL_TL2E" departLane="random" departSpeed="10" type="car" /><vehicle id="trip_97" depart="463.0" route="route_E2TL_TL2S" departLane="random" departSpeed="10" type="car" /><vehicle id="trip_98" depart="466.0" route="route_S2TL_TL2N" departLane="random" departSpeed="10" type="car" /><vehicle id="trip_99" depart="473.0" route="route_N2TL_TL2W" departLane="random" departSpeed="10" type="car" /><vehicle id="trip_100" depart="479.0" route="route_S2TL_TL2N" departLane="random" departSpeed="10" type="car" /><vehicle id="trip_101" depart="481.0" route="route_W2TL_TL2E" departLane="random" departSpeed="10" type="car" /><vehicle id="trip_102" depart="482.0" route="route_E2TL_TL2W" departLane="random" departSpeed="10" type="car" /><vehicle id="trip_103" depart="482.0" route="route_S2TL_TL2W" departLane="random" departSpeed="10" type="car" /><vehicle id="trip_104" depart="485.0" route="route_E2TL_TL2W" departLane="random" departSpeed="10" type="car" /><vehicle id="trip_105" depart="485.0" route="route_E2TL_TL2W" departLane="random" departSpeed="10" type="car" /><vehicle id="trip_106" depart="486.0" route="route_W2TL_TL2E" departLane="random" departSpeed="10" type="car" /><vehicle id="trip_107" depart="496.0" route="route_N2TL_TL2S" departLane="random" departSpeed="10" type="car" /><vehicle id="trip_108" depart="496.0" route="route_W2TL_TL2E" departLane="random" departSpeed="10" type="car" /><vehicle id="trip_109" depart="498.0" route="route_E2TL_TL2W" departLane="random" departSpeed="10" type="car" /><vehicle id="trip_110" depart="500.0" route="route_E2TL_TL2W" departLane="random" departSpeed="10" type="car" /><vehicle id="trip_111" depart="500.0" route="route_S2TL_TL2N" departLane="random" departSpeed="10" type="car" /><vehicle id="trip_112" depart="502.0" route="route_E2TL_TL2N" departLane="random" departSpeed="10" type="car" /><vehicle id="trip_113" depart="508.0" route="route_S2TL_TL2N" departLane="random" departSpeed="10" type="car" /><vehicle id="trip_114" depart="511.0" route="route_W2TL_TL2N" departLane="random" departSpeed="10" type="car" /><vehicle id="trip_115" depart="512.0" route="route_S2TL_TL2E" departLane="random" departSpeed="10" type="car" /><vehicle id="trip_116" depart="514.0" route="route_S2TL_TL2N" departLane="random" departSpeed="10" type="car" /><vehicle id="trip_117" depart="514.0" route="route_E2TL_TL2N" departLane="random" departSpeed="10" type="car" /><vehicle id="trip_118" depart="520.0" route="route_S2TL_TL2N" departLane="random" departSpeed="10" type="car" /><vehicle id="trip_119" depart="521.0" route="route_S2TL_TL2N" departLane="random" departSpeed="10" type="car" /><vehicle id="trip_120" depart="524.0" route="route_S2TL_TL2N" departLane="random" departSpeed="10" type="car" /><vehicle id="trip_121" depart="524.0" route="route_N2TL_TL2S" departLane="random" departSpeed="10" type="car" /><vehicle id="trip_122" depart="525.0" route="route_N2TL_TL2S" departLane="random" departSpeed="10" type="car" /><vehicle id="trip_123" depart="528.0" route="route_W2TL_TL2S" departLane="random" departSpeed="10" type="car" /><vehicle id="trip_124" depart="541.0" route="route_E2TL_TL2N" departLane="random" departSpeed="10" type="car" /><vehicle id="trip_125" depart="544.0" route="route_E2TL_TL2N" departLane="random" departSpeed="10" type="car" /><vehicle id="trip_126" depart="549.0" route="route_W2TL_TL2S" departLane="random" departSpeed="10" type="car" /><vehicle id="trip_127" depart="553.0" route="route_E2TL_TL2W" departLane="random" departSpeed="10" type="car" /><vehicle id="trip_128" depart="557.0" route="route_E2TL_TL2W" departLane="random" departSpeed="10" type="car" /><vehicle id="trip_129" depart="558.0" route="route_E2TL_TL2W" departLane="random" departSpeed="10" type="car" /><vehicle id="trip_130" depart="560.0" route="route_W2TL_TL2E" departLane="random" departSpeed="10" type="car" /><vehicle id="trip_131" depart="562.0" route="route_W2TL_TL2N" departLane="random" departSpeed="10" type="car" /><vehicle id="trip_132" depart="564.0" route="route_E2TL_TL2N" departLane="random" departSpeed="10" type="car" /><vehicle id="trip_133" depart="565.0" route="route_N2TL_TL2S" departLane="random" departSpeed="10" type="car" /><vehicle id="trip_134" depart="570.0" route="route_E2TL_TL2W" departLane="random" departSpeed="10" type="car" /><vehicle id="trip_135" depart="570.0" route="route_N2TL_TL2E" departLane="random" departSpeed="10" type="car" /><vehicle id="trip_136" depart="571.0" route="route_E2TL_TL2W" departLane="random" departSpeed="10" type="car" /><vehicle id="trip_137" depart="572.0" route="route_S2TL_TL2N" departLane="random" departSpeed="10" type="car" /><vehicle id="trip_138" depart="573.0" route="route_N2TL_TL2S" departLane="random" departSpeed="10" type="car" /><vehicle id="trip_139" depart="576.0" route="route_E2TL_TL2W" departLane="random" departSpeed="10" type="car" /><vehicle id="trip_140" depart="579.0" route="route_S2TL_TL2E" departLane="random" departSpeed="10" type="car" /><vehicle id="trip_141" depart="579.0" route="route_E2TL_TL2N" departLane="random" departSpeed="10" type="car" /><vehicle id="trip_142" depart="581.0" route="route_E2TL_TL2W" departLane="random" departSpeed="10" type="car" /><vehicle id="trip_143" depart="582.0" route="route_W2TL_TL2S" departLane="random" departSpeed="10" type="car" /><vehicle id="trip_144" depart="585.0" route="route_E2TL_TL2W" departLane="random" departSpeed="10" type="car" /><vehicle id="trip_145" depart="586.0" route="route_N2TL_TL2S" departLane="random" departSpeed="10" type="car" /><vehicle id="trip_146" depart="591.0" route="route_S2TL_TL2W" departLane="random" departSpeed="10" type="car" /><vehicle id="trip_147" depart="594.0" route="route_W2TL_TL2E" departLane="random" departSpeed="10" type="car" /><vehicle id="trip_148" depart="601.0" route="route_W2TL_TL2N" departLane="random" departSpeed="10" type="car" /><vehicle id="trip_149" depart="604.0" route="route_E2TL_TL2W" departLane="random" departSpeed="10" type="car" /><vehicle id="trip_150" depart="604.0" route="route_S2TL_TL2N" departLane="random" departSpeed="10" type="car" /><vehicle id="trip_151" depart="605.0" route="route_W2TL_TL2S" departLane="random" departSpeed="10" type="car" /><vehicle id="trip_152" depart="606.0" route="route_E2TL_TL2S" departLane="random" departSpeed="10" type="car" /><vehicle id="trip_153" depart="606.0" route="route_S2TL_TL2N" departLane="random" departSpeed="10" type="car" /><vehicle id="trip_154" depart="609.0" route="route_W2TL_TL2E" departLane="random" departSpeed="10" type="car" /><vehicle id="trip_155" depart="615.0" route="route_N2TL_TL2S" departLane="random" departSpeed="10" type="car" /><vehicle id="trip_156" depart="618.0" route="route_N2TL_TL2E" departLane="random" departSpeed="10" type="car" /><vehicle id="trip_157" depart="621.0" route="route_S2TL_TL2N" departLane="random" departSpeed="10" type="car" /><vehicle id="trip_158" depart="621.0" route="route_N2TL_TL2S" departLane="random" departSpeed="10" type="car" /><vehicle id="trip_159" depart="622.0" route="route_E2TL_TL2W" departLane="random" departSpeed="10" type="car" /><vehicle id="trip_160" depart="628.0" route="route_N2TL_TL2W" departLane="random" departSpeed="10" type="car" /><vehicle id="trip_161" depart="634.0" route="route_N2TL_TL2S" departLane="random" departSpeed="10" type="car" /><vehicle id="trip_162" depart="635.0" route="route_S2TL_TL2N" departLane="random" departSpeed="10" type="car" /><vehicle id="trip_163" depart="637.0" route="route_S2TL_TL2E" departLane="random" departSpeed="10" type="car" /><vehicle id="trip_164" depart="639.0" route="route_N2TL_TL2S" departLane="random" departSpeed="10" type="car" /><vehicle id="trip_165" depart="640.0" route="route_N2TL_TL2S" departLane="random" departSpeed="10" type="car" /><vehicle id="trip_166" depart="644.0" route="route_W2TL_TL2E" departLane="random" departSpeed="10" type="car" /><vehicle id="trip_167" depart="649.0" route="route_N2TL_TL2E" departLane="random" departSpeed="10" type="car" /><vehicle id="trip_168" depart="654.0" route="route_S2TL_TL2N" departLane="random" departSpeed="10" type="car" /><vehicle id="trip_169" depart="654.0" route="route_E2TL_TL2N" departLane="random" departSpeed="10" type="car" /><vehicle id="trip_170" depart="657.0" route="route_S2TL_TL2W" departLane="random" departSpeed="10" type="car" /><vehicle id="trip_171" depart="658.0" route="route_N2TL_TL2S" departLane="random" departSpeed="10" type="car" /><vehicle id="trip_172" depart="662.0" route="route_E2TL_TL2N" departLane="random" departSpeed="10" type="car" /><vehicle id="trip_173" depart="667.0" route="route_N2TL_TL2E" departLane="random" departSpeed="10" type="car" /><vehicle id="trip_174" depart="669.0" route="route_E2TL_TL2W" departLane="random" departSpeed="10" type="car" /><vehicle id="trip_175" depart="669.0" route="route_W2TL_TL2S" departLane="random" departSpeed="10" type="car" /><vehicle id="trip_176" depart="670.0" route="route_N2TL_TL2S" departLane="random" departSpeed="10" type="car" /><vehicle id="trip_177" depart="670.0" route="route_N2TL_TL2E" departLane="random" departSpeed="10" type="car" /><vehicle id="trip_178" depart="671.0" route="route_N2TL_TL2S" departLane="random" departSpeed="10" type="car" /><vehicle id="trip_179" depart="675.0" route="route_W2TL_TL2N" departLane="random" departSpeed="10" type="car" /><vehicle id="trip_180" depart="675.0" route="route_S2TL_TL2N" departLane="random" departSpeed="10" type="car" /><vehicle id="trip_181" depart="675.0" route="route_S2TL_TL2N" departLane="random" departSpeed="10" type="car" /><vehicle id="trip_182" depart="680.0" route="route_S2TL_TL2W" departLane="random" departSpeed="10" type="car" /><vehicle id="trip_183" depart="683.0" route="route_N2TL_TL2S" departLane="random" departSpeed="10" type="car" /><vehicle id="trip_184" depart="684.0" route="route_N2TL_TL2S" departLane="random" departSpeed="10" type="car" /><vehicle id="trip_185" depart="688.0" route="route_S2TL_TL2N" departLane="random" departSpeed="10" type="car" /><vehicle id="trip_186" depart="690.0" route="route_E2TL_TL2N" departLane="random" departSpeed="10" type="car" /><vehicle id="trip_187" depart="690.0" route="route_E2TL_TL2W" departLane="random" departSpeed="10" type="car" /><vehicle id="trip_188" depart="691.0" route="route_N2TL_TL2S" departLane="random" departSpeed="10" type="car" /><vehicle id="trip_189" depart="698.0" route="route_E2TL_TL2W" departLane="random" departSpeed="10" type="car" /><vehicle id="trip_190" depart="699.0" route="route_S2TL_TL2N" departLane="random" departSpeed="10" type="car" /><vehicle id="trip_191" depart="701.0" route="route_N2TL_TL2S" departLane="random" departSpeed="10" type="car" /><vehicle id="trip_192" depart="701.0" route="route_W2TL_TL2E" departLane="random" departSpeed="10" type="car" /><vehicle id="trip_193" depart="702.0" route="route_S2TL_TL2N" departLane="random" departSpeed="10" type="car" /><vehicle id="trip_194" depart="704.0" route="route_N2TL_TL2S" departLane="random" departSpeed="10" type="car" /><vehicle id="trip_195" depart="705.0" route="route_N2TL_TL2S" departLane="random" departSpeed="10" type="car" /><vehicle id="trip_196" depart="706.0" route="route_S2TL_TL2W" departLane="random" departSpeed="10" type="car" /><vehicle id="trip_197" depart="706.0" route="route_N2TL_TL2S" departLane="random" departSpeed="10" type="car" /><vehicle id="trip_198" depart="707.0" route="route_S2TL_TL2N" departLane="random" departSpeed="10" type="car" /><vehicle id="trip_199" depart="708.0" route="route_E2TL_TL2N" departLane="random" departSpeed="10" type="car" /><vehicle id="trip_200" depart="708.0" route="route_N2TL_TL2S" departLane="random" departSpeed="10" type="car" /><vehicle id="trip_201" depart="709.0" route="route_N2TL_TL2E" departLane="random" departSpeed="10" type="car" /><vehicle id="trip_202" depart="710.0" route="route_E2TL_TL2W" departLane="random" departSpeed="10" type="car" /><vehicle id="trip_203" depart="713.0" route="route_S2TL_TL2E" departLane="random" departSpeed="10" type="car" /><vehicle id="trip_204" depart="714.0" route="route_N2TL_TL2W" departLane="random" departSpeed="10" type="car" /><vehicle id="trip_205" depart="714.0" route="route_S2TL_TL2N" departLane="random" departSpeed="10" type="car" /><vehicle id="trip_206" depart="715.0" route="route_W2TL_TL2E" departLane="random" departSpeed="10" type="car" /><vehicle id="trip_207" depart="715.0" route="route_W2TL_TL2E" departLane="random" departSpeed="10" type="car" /><vehicle id="trip_208" depart="716.0" route="route_N2TL_TL2W" departLane="random" departSpeed="10" type="car" /><vehicle id="trip_209" depart="716.0" route="route_N2TL_TL2S" departLane="random" departSpeed="10" type="car" /><vehicle id="trip_210" depart="724.0" route="route_N2TL_TL2W" departLane="random" departSpeed="10" type="car" /><vehicle id="trip_211" depart="725.0" route="route_W2TL_TL2E" departLane="random" departSpeed="10" type="car" /><vehicle id="trip_212" depart="729.0" route="route_W2TL_TL2E" departLane="random" departSpeed="10" type="car" /><vehicle id="trip_213" depart="729.0" route="route_W2TL_TL2E" departLane="random" departSpeed="10" type="car" /><vehicle id="trip_214" depart="731.0" route="route_E2TL_TL2W" departLane="random" departSpeed="10" type="car" /><vehicle id="trip_215" depart="732.0" route="route_W2TL_TL2S" departLane="random" departSpeed="10" type="car" /><vehicle id="trip_216" depart="735.0" route="route_S2TL_TL2N" departLane="random" departSpeed="10" type="car" /><vehicle id="trip_217" depart="737.0" route="route_E2TL_TL2S" departLane="random" departSpeed="10" type="car" /><vehicle id="trip_218" depart="739.0" route="route_S2TL_TL2W" departLane="random" departSpeed="10" type="car" /><vehicle id="trip_219" depart="740.0" route="route_W2TL_TL2S" departLane="random" departSpeed="10" type="car" /><vehicle id="trip_220" depart="742.0" route="route_N2TL_TL2S" departLane="random" departSpeed="10" type="car" /><vehicle id="trip_221" depart="745.0" route="route_S2TL_TL2N" departLane="random" departSpeed="10" type="car" /><vehicle id="trip_222" depart="745.0" route="route_N2TL_TL2S" departLane="random" departSpeed="10" type="car" /><vehicle id="trip_223" depart="748.0" route="route_E2TL_TL2W" departLane="random" departSpeed="10" type="car" /><vehicle id="trip_224" depart="748.0" route="route_S2TL_TL2W" departLane="random" departSpeed="10" type="car" /><vehicle id="trip_225" depart="752.0" route="route_E2TL_TL2N" departLane="random" departSpeed="10" type="car" /><vehicle id="trip_226" depart="753.0" route="route_W2TL_TL2E" departLane="random" departSpeed="10" type="car" /><vehicle id="trip_227" depart="753.0" route="route_S2TL_TL2E" departLane="random" departSpeed="10" type="car" /><vehicle id="trip_228" depart="754.0" route="route_E2TL_TL2S" departLane="random" departSpeed="10" type="car" /><vehicle id="trip_229" depart="754.0" route="route_E2TL_TL2W" departLane="random" departSpeed="10" type="car" /><vehicle id="trip_230" depart="755.0" route="route_S2TL_TL2N" departLane="random" departSpeed="10" type="car" /><vehicle id="trip_231" depart="756.0" route="route_W2TL_TL2E" departLane="random" departSpeed="10" type="car" /><vehicle id="trip_232" depart="757.0" route="route_N2TL_TL2E" departLane="random" departSpeed="10" type="car" /><vehicle id="trip_233" depart="759.0" route="route_W2TL_TL2S" departLane="random" departSpeed="10" type="car" /><vehicle id="trip_234" depart="760.0" route="route_E2TL_TL2W" departLane="random" departSpeed="10" type="car" /><vehicle id="trip_235" depart="760.0" route="route_W2TL_TL2E" departLane="random" departSpeed="10" type="car" /><vehicle id="trip_236" depart="763.0" route="route_N2TL_TL2S" departLane="random" departSpeed="10" type="car" /><vehicle id="trip_237" depart="764.0" route="route_E2TL_TL2S" departLane="random" departSpeed="10" type="car" /><vehicle id="trip_238" depart="765.0" route="route_N2TL_TL2E" departLane="random" departSpeed="10" type="car" /><vehicle id="trip_239" depart="766.0" route="route_N2TL_TL2W" departLane="random" departSpeed="10" type="car" /><vehicle id="trip_240" depart="767.0" route="route_W2TL_TL2E" departLane="random" departSpeed="10" type="car" /><vehicle id="trip_241" depart="767.0" route="route_W2TL_TL2E" departLane="random" departSpeed="10" type="car" /><vehicle id="trip_242" depart="774.0" route="route_E2TL_TL2W" departLane="random" departSpeed="10" type="car" /><vehicle id="trip_243" depart="775.0" route="route_S2TL_TL2E" departLane="random" departSpeed="10" type="car" /><vehicle id="trip_244" depart="778.0" route="route_S2TL_TL2N" departLane="random" departSpeed="10" type="car" /><vehicle id="trip_245" depart="780.0" route="route_N2TL_TL2S" departLane="random" departSpeed="10" type="car" /><vehicle id="trip_246" depart="780.0" route="route_W2TL_TL2E" departLane="random" departSpeed="10" type="car" /><vehicle id="trip_247" depart="782.0" route="route_N2TL_TL2E" departLane="random" departSpeed="10" type="car" /><vehicle id="trip_248" depart="782.0" route="route_E2TL_TL2N" departLane="random" departSpeed="10" type="car" /><vehicle id="trip_249" depart="783.0" route="route_E2TL_TL2N" departLane="random" departSpeed="10" type="car" /><vehicle id="trip_250" depart="784.0" route="route_S2TL_TL2N" departLane="random" departSpeed="10" type="car" /><vehicle id="trip_251" depart="787.0" route="route_S2TL_TL2N" departLane="random" departSpeed="10" type="car" /><vehicle id="trip_252" depart="788.0" route="route_W2TL_TL2N" departLane="random" departSpeed="10" type="car" /><vehicle id="trip_253" depart="790.0" route="route_W2TL_TL2N" departLane="random" departSpeed="10" type="car" /><vehicle id="trip_254" depart="791.0" route="route_W2TL_TL2N" departLane="random" departSpeed="10" type="car" /><vehicle id="trip_255" depart="791.0" route="route_E2TL_TL2N" departLane="random" departSpeed="10" type="car" /><vehicle id="trip_256" depart="794.0" route="route_S2TL_TL2W" departLane="random" departSpeed="10" type="car" /><vehicle id="trip_257" depart="797.0" route="route_S2TL_TL2W" departLane="random" departSpeed="10" type="car" /><vehicle id="trip_258" depart="798.0" route="route_S2TL_TL2N" departLane="random" departSpeed="10" type="car" /><vehicle id="trip_259" depart="798.0" route="route_S2TL_TL2W" departLane="random" departSpeed="10" type="car" /><vehicle id="trip_260" depart="800.0" route="route_W2TL_TL2N" departLane="random" departSpeed="10" type="car" /><vehicle id="trip_261" depart="801.0" route="route_S2TL_TL2N" departLane="random" departSpeed="10" type="car" /><vehicle id="trip_262" depart="801.0" route="route_N2TL