<?xml version='1.0' encoding='UTF-8'?>
<routes><route id="route_E2TL_TL2N" edges="E2TL TL2N" /><route id="route_E2TL_TL2S" edges="E2TL TL2S" /><route id="route_E2TL_TL2W" edges="E2TL TL2W" /><route id="route_N2TL_TL2E" edges="N2TL TL2E" /><route id="route_N2TL_TL2S" edges="N2TL TL2S" /><route id="route_N2TL_TL2W" edges="N2TL TL2W" /><route id="route_S2TL_TL2E" edges="S2TL TL2E" /><route id="route_S2TL_TL2N" edges="S2TL TL2N" /><route id="route_S2TL_TL2W" edges="S2TL TL2W" /><route id="route_W2TL_TL2E" edges="W2TL TL2E" /><route id="route_W2TL_TL2N" edges="W2TL TL2N" /><route id="route_W2TL_TL2S" edges="W2TL TL2S" /><vType id="car" accel="2.6" decel="4.5" sigma="0.5" length="5" minGap="2.5" maxSpeed="50" /><vehicle id="trip_0" depart="43.0" route="route_E2TL_TL2W" departLane="random" departSpeed="10" type="car" /><vehicle id="trip_1" depart="50.0" route="route_E2TL_TL2W" departLane="random" departSpeed="10" type="car" /><vehicle id="trip_2" depart="57.0" route="route_N2TL_TL2S" departLane="random" departSpeed="10" type="car" /><vehicle id="trip_3" depart="58.0" route="route_E2TL_TL2W" departLane="random" departSpeed="10" type="car" /><vehicle id="trip_4" depart="60.0" route="route_E2TL_TL2S" departLane="random" departSpeed="10" type="car" /><vehicle id="trip_5" depart="60.0" route="route_N2TL_TL2S" departLane="random" departSpeed="10" type="car" /><vehicle id="trip_6" depart="64.0" route="route_W2TL_TL2N" departLane="random" departSpeed="10" type="car" /><vehicle id="trip_7" depart="78.0" route="route_W2TL_TL2E" departLane="random" departSpeed="10" type="car" /><vehicle id="trip_8" depart="128.0" route="route_W2TL_TL2E" departLane="random" departSpeed="10" type="car" /><vehicle id="trip_9" depart="144.0" route="route_E2TL_TL2W" departLane="random" departSpeed="10" type="car" /><vehicle id="trip_10" depart="154.0" route="route_S2TL_TL2E" departLane="random" departSpeed="10" type="car" /><vehicle id="trip_11" depart="160.0" route="route_N2TL_TL2E" departLane="random" departSpeed="10" type="car" /><vehicle id="trip_12" depart="167.0" route="route_E2TL_TL2W" departLane="random" departSpeed="10" type="car" /><vehicle id="trip_13" depart="181.0" route="route_E2TL_TL2W" departLane="random" departSpeed="10" type="car" /><vehicle id="trip_14" depart="184.0" route="route_E2TL_TL2W" departLane="random" departSpeed="10" type="car" /><vehicle id="trip_15" depart="185.0" route="route_W2TL_TL2N" departLane="random" departSpeed="10" type="car" /><vehicle id="trip_16" depart="203.0" route="route_W2TL_TL2E" departLane="random" departSpeed="10" type="car" /><vehicle id="trip_17" depart="209.0" route="route_W2TL_TL2E" departLane="random" departSpeed="10" type="car" /><vehicle id="trip_18" depart="209.0" route="route_W2TL_TL2E" departLane="random" departSpeed="10" type="car" /><vehicle id="trip_19" depart="209.0" route="route_E2TL_TL2W" departLane="random" departSpeed="10" type="car" /><vehicle id="trip_20" depart="213.0" route="route_N2TL_TL2S" departLane="random" departSpeed="10" type="car" /><vehicle id="trip_21" depart="214.0" route="route_S2TL_TL2N" departLane="random" departSpeed="10" type="car" /><vehicle id="trip_22" depart="217.0" route="route_S2TL_TL2W" departLane="random" departSpeed="10" type="car" /><vehicle id="trip_23" depart="226.0" route="route_W2TL_TL2E" departLane="random" departSpeed="10" type="car" /><vehicle id="trip_24" depart="230.0" route="route_W2TL_TL2E" departLane="random" departSpeed="10" type="car" /><vehicle id="trip_25" depart="231.0" route="route_E2TL_TL2S" departLane="random" departSpeed="10" type="car" /><vehicle id="trip_26" depart="233.0" route="route_S2TL_TL2N" departLane="random" departSpeed="10" type="car" /><vehicle id="trip_27" depart="243.0" route="route_S2TL_TL2N" departLane="random" departSpeed="10" type="car" /><vehicle id="trip_28" depart="249.0" route="route_S2TL_TL2E" departLane="random" departSpeed="10" type="car" /><vehicle id="trip_29" depart="253.0" route="route_E2TL_TL2W" departLane="random" departSpeed="10" type="car" /><vehicle id="trip_30" depart="256.0" route="route_N2TL_TL2W" departLane="random" departSpeed="10" type="car" /><vehicle id="trip_31" depart="265.0" route="route_E2TL_TL2S" departLane="random" departSpeed="10" type="car" /><vehicle id="trip_32" depart="266.0" route="route_W2TL_TL2N" departLane="random" departSpeed="10" type="car" /><vehicle id="trip_33" depart="269.0" route="route_W2TL_TL2E" departLane="random" departSpeed="10" type="car" /><vehicle id="trip_34" depart="274.0" route="route_S2TL_TL2E" departLane="random" departSpeed="10" type="car" /><vehicle id="trip_35" depart="276.0" route="route_N2TL_TL2S" departLane="random" departSpeed="10" type="car" /><vehicle id="trip_36" depart="277.0" route="route_W2TL_TL2N" departLane="random" departSpeed="10" type="car" /><vehicle id="trip_37" depart="283.0" route="route_S2TL_TL2N" departLane="random" departSpeed="10" type="car" /><vehicle id="trip_38" depart="286.0" route="route_W2TL_TL2E" departLane="random" departSpeed="10" type="car" /><vehicle id="trip_39" depart="293.0" route="route_W2TL_TL2E" departLane="random" departSpeed="10" type="car" /><vehicle id="trip_40" depart="295.0" route="route_S2TL_TL2E" departLane="random" departSpeed="10" type="car" /><vehicle id="trip_41" depart="298.0" route="route_N2TL_TL2S" departLane="random" departSpeed="10" type="car" /><vehicle id="trip_42" depart="300.0" route="route_S2TL_TL2N" departLane="random" departSpeed="10" type="car" /><vehicle id="trip_43" depart="300.0" route="route_N2TL_TL2S" departLane="random" departSpeed="10" type="car" /><vehicle id="trip_44" depart="301.0" route="route_E2TL_TL2W" departLane="random" departSpeed="10" type="car" /><vehicle id="trip_45" depart="306.0" route="route_N2TL_TL2S" departLane="random" departSpeed="10" type="car" /><vehicle id="trip_46" depart="306.0" route="route_W2TL_TL2E" departLane="random" departSpeed="10" type="car" /><vehicle id="trip_47" depart="308.0" route="route_E2TL_TL2N" departLane="random" departSpeed="10" type="car" /><vehicle id="trip_48" depart="313.0" route="route_E2TL_TL2N" departLane="random" departSpeed="10" type="car" /><vehicle id="trip_49" depart="314.0" route="route_S2TL_TL2N" departLane="random" departSpeed="10" type="car" /><vehicle id="trip_50" depart="314.0" route="route_N2TL_TL2E" departLane="random" departSpeed="10" type="car" /><vehicle id="trip_51" depart="320.0" route="route_S2TL_TL2E" departLane="random" departSpeed="10" type="car" /><vehicle id="trip_52" depart="326.0" route="route_N2TL_TL2W" departLane="random" departSpeed="10" type="car" /><vehicle id="trip_53" depart="327.0" route="route_N2TL_TL2S" departLane="random" departSpeed="10" type="car" /><vehicle id="trip_54" depart="327.0" route="route_W2TL_TL2S" departLane="random" departSpeed="10" type="car" /><vehicle id="trip_55" depart="328.0" route="route_E2TL_TL2W" departLane="random" departSpeed="10" type="car" /><vehicle id="trip_56" depart="330.0" route="route_N2TL_TL2S" departLane="random" departSpeed="10" type="car" /><vehicle id="trip_57" depart="334.0" route="route_E2TL_TL2W" departLane="random" departSpeed="10" type="car" /><vehicle id="trip_58" depart="336.0" route="route_S2TL_TL2N" departLane="random" departSpeed="10" type="car" /><vehicle id="trip_59" depart="338.0" route="route_N2TL_TL2E" departLane="random" departSpeed="10" type="car" /><vehicle id="trip_60" depart="339.0" route="route_N2TL_TL2S" departLane="random" departSpeed="10" type="car" /><vehicle id="trip_61" depart="339.0" route="route_S2TL_TL2W" departLane="random" departSpeed="10" type="car" /><vehicle id="trip_62" depart="339.0" route="route_N2TL_TL2S" departLane="random" departSpeed="10" type="car" /><vehicle id="trip_63" depart="340.0" route="route_S2TL_TL2N" departLane="random" departSpeed="10" type="car" /><vehicle id="trip_64" depart="343.0" route="route_W2TL_TL2N" departLane="random" departSpeed="10" type="car" /><vehicle id="trip_65" depart="344.0" route="route_E2TL_TL2W" departLane="random" departSpeed="10" type="car" /><vehicle id="trip_66" depart="350.0" route="route_E2TL_TL2S" departLane="random" departSpeed="10" type="car" /><vehicle id="trip_67" depart="358.0" route="route_E2TL_TL2W" departLane="random" departSpeed="10" type="car" /><vehicle id="trip_68" depart="362.0" route="route_W2TL_TL2E" departLane="random" departSpeed="10" type="car" /><vehicle id="trip_69" depart="368.0" route="route_S2TL_TL2N" departLane="random" departSpeed="10" type="car" /><vehicle id="trip_70" depart="369.0" route="route_E2TL_TL2W" departLane="random" departSpeed="10" type="car" /><vehicle id="trip_71" depart="372.0" route="route_N2TL_TL2S" departLane="random" departSpeed="10" type="car" /><vehicle id="trip_72" depart="372.0" route="route_E2TL_TL2W" departLane="random" departSpeed="10" type="car" /><vehicle id="trip_73" depart="372.0" route="route_N2TL_TL2W" departLane="random" departSpeed="10" type="car" /><vehicle id="trip_74" depart="373.0" route="route_E2TL_TL2N" departLane="random" departSpeed="10" type="car" /><vehicle id="trip_75" depart="374.0" route="route_S2TL_TL2N" departLane="random" departSpeed="10" type="car" /><vehicle id="trip_76" depart="379.0" route="route_W2TL_TL2E" departLane="random" departSpeed="10" type="car" /><vehicle id="trip_77" depart="379.0" route="route_W2TL_TL2S" departLane="random" departSpeed="10" type="car" /><vehicle id="trip_78" depart="381.0" route="route_S2TL_TL2W" departLane="random" departSpeed="10" type="car" /><vehicle id="trip_79" depart="382.0" route="route_W2TL_TL2S" departLane="random" departSpeed="10" type="car" /><vehicle id="trip_80" depart="383.0" route="route_E2TL_TL2N" departLane="random" departSpeed="10" type="car" /><vehicle id="trip_81" depart="386.0" route="route_N2TL_TL2E" departLane="random" departSpeed="10" type="car" /><vehicle id="trip_82" depart="387.0" route="route_W2TL_TL2S" departLane="random" departSpeed="10" type="car" /><vehicle id="trip_83" depart="388.0" route="route_W2TL_TL2E" departLane="random" departSpeed="10" type="car" /><vehicle id="trip_84" depart="389.0" route="route_N2TL_TL2S" departLane="random" departSpeed="10" type="car" /><vehicle id="trip_85" depart="391.0" route="route_W2TL_TL2N" departLane="random" departSpeed="10" type="car" /><vehicle id="trip_86" depart="391.0" route="route_S2TL_TL2N" departLane="random" departSpeed="10" type="car" /><vehicle id="trip_87" depart="393.0" route="route_W2TL_TL2E" departLane="random" departSpeed="10" type="car" /><vehicle id="trip_88" depart="395.0" route="route_N2TL_TL2E" departLane="random" departSpeed="10" type="car" /><vehicle id="trip_89" depart="395.0" route="route_E2TL_TL2W" departLane="random" departSpeed="10" type="car" /><vehicle id="trip_90" depart="396.0" route="route_N2TL_TL2S" departLane="random" departSpeed="10" type="car" /><vehicle id="trip_91" depart="397.0" route="route_E2TL_TL2W" departLane="random" departSpeed="10" type="car" /><vehicle id="trip_92" depart="401.0" route="route_N2TL_TL2S" departLane="random" departSpeed="10" type="car" /><vehicle id="trip_93" depart="401.0" route="route_W2TL_TL2S" departLane="random" departSpeed="10" type="car" /><vehicle id="trip_94" depart="402.0" route="route_N2TL_TL2S" departLane="random" departSpeed="10" type="car" /><vehicle id="trip_95" depart="410.0" route="route_E2TL_TL2N" departLane="random" departSpeed="10" type="car" /><vehicle id="trip_96" depart="415.0" route="route_E2TL_TL2N" departLane="random" departSpeed="10" type="car" /><vehicle id="trip_97" depart="419.0" route="route_E2TL_TL2W" departLane="random" departSpeed="10" type="car" /><vehicle id="trip_98" depart="419.0" route="route_W2TL_TL2E" departLane="random" departSpeed="10" type="car" /><vehicle id="trip_99" depart="423.0" route="route_N2TL_TL2S" departLane="random" departSpeed="10" type="car" /><vehicle id="trip_100" depart="423.0" route="route_N2TL_TL2E" departLane="random" departSpeed="10" type="car" /><vehicle id="trip_101" depart="424.0" route="route_E2TL_TL2S" departLane="random" departSpeed="10" type="car" /><vehicle id="trip_102" depart="425.0" route="route_W2TL_TL2S" departLane="random" departSpeed="10" type="car" /><vehicle id="trip_103" depart="431.0" route="route_N2TL_TL2S" departLane="random" departSpeed="10" type="car" /><vehicle id="trip_104" depart="432.0" route="route_E2TL_TL2W" departLane="random" departSpeed="10" type="car" /><vehicle id="trip_105" depart="433.0" route="route_E2TL_TL2S" departLane="random" departSpeed="10" type="car" /><vehicle id="trip_106" depart="434.0" route="route_E2TL_TL2S" departLane="random" departSpeed="10" type="car" /><vehicle id="trip_107" depart="435.0" route="route_E2TL_TL2W" departLane="random" departSpeed="10" type="car" /><vehicle id="trip_108" depart="435.0" route="route_S2TL_TL2N" departLane="random" departSpeed="10" type="car" /><vehicle id="trip_109" depart="437.0" route="route_E2TL_TL2W" departLane="random" departSpeed="10" type="car" /><vehicle id="trip_110" depart="438.0" route="route_E2TL_TL2N" departLane="random" departSpeed="10" type="car" /><vehicle id="trip_111" depart="441.0" route="route_N2TL_TL2W" departLane="random" departSpeed="10" type="car" /><vehicle id="trip_112" depart="442.0" route="route_E2TL_TL2W" departLane="random" departSpeed="10" type="car" /><vehicle id="trip_113" depart="444.0" route="route_W2TL_TL2S" departLane="random" departSpeed="10" type="car" /><vehicle id="trip_114" depart="444.0" route="route_E2TL_TL2W" departLane="random" departSpeed="10" type="car" /><vehicle id="trip_115" depart="445.0" route="route_S2TL_TL2E" departLane="random" departSpeed="10" type="car" /><vehicle id="trip_116" depart="448.0" route="route_W2TL_TL2E" departLane="random" departSpeed="10" type="car" /><vehicle id="trip_117" depart="449.0" route="route_N2TL_TL2S" departLane="random" departSpeed="10" type="car" /><vehicle id="trip_118" depart="450.0" route="route_W2TL_TL2S" departLane="random" departSpeed="10" type="car" /><vehicle id="trip_119" depart="450.0" route="route_N2TL_TL2W" departLane="random" departSpeed="10" type="car" /><vehicle id="trip_120" depart="451.0" route="route_E2TL_TL2W" departLane="random" departSpeed="10" type="car" /><vehicle id="trip_121" depart="451.0" route="route_N2TL_TL2S" departLane="random" departSpeed="10" type="car" /><vehicle id="trip_122" depart="462.0" route="route_E2TL_TL2N" departLane="random" departSpeed="10" type="car" /><vehicle id="trip_123" depart="464.0" route="route_N2TL_TL2S" departLane="random" departSpeed="10" type="car" /><vehicle id="trip_124" depart="466.0" route="route_E2TL_TL2W" departLane="random" departSpeed="10" type="car" /><vehicle id="trip_125" depart="476.0" route="route_W2TL_TL2E" departLane="random" departSpeed="10" type="car" /><vehicle id="trip_126" depart="477.0" route="route_W2TL_TL2E" departLane="random" departSpeed="10" type="car" /><vehicle id="trip_127" depart="479.0" route="route_N2TL_TL2W" departLane="random" departSpeed="10" type="car" /><vehicle id="trip_128" depart="481.0" route="route_E2TL_TL2N" departLane="random" departSpeed="10" type="car" /><vehicle id="trip_129" depart="483.0" route="route_N2TL_TL2E" departLane="random" departSpeed="10" type="car" /><vehicle id="trip_130" depart="486.0" route="route_E2TL_TL2W" departLane="random" departSpeed="10" type="car" /><vehicle id="trip_131" depart="487.0" route="route_E2TL_TL2W" departLane="random" departSpeed="10" type="car" /><vehicle id="trip_132" depart="487.0" route="route_E2TL_TL2W" departLane="random" departSpeed="10" type="car" /><vehicle id="trip_133" depart="487.0" route="route_W2TL_TL2E" departLane="random" departSpeed="10" type="car" /><vehicle id="trip_134" depart="489.0" route="route_E2TL_TL2W" departLane="random" departSpeed="10" type="car" /><vehicle id="trip_135" depart="489.0" route="route_E2TL_TL2S" departLane="random" departSpeed="10" type="car" /><vehicle id="trip_136" depart="490.0" route="route_W2TL_TL2N" departLane="random" departSpeed="10" type="car" /><vehicle id="trip_137" depart="498.0" route="route_S2TL_TL2N" departLane="random" departSpeed="10" type="car" /><vehicle id="trip_138" depart="498.0" route="route_W2TL_TL2S" departLane="random" departSpeed="10" type="car" /><vehicle id="trip_139" depart="499.0" route="route_N2TL_TL2S" departLane="random" departSpeed="10" type="car" /><vehicle id="trip_140" depart="501.0" route="route_W2TL_TL2N" departLane="random" departSpeed="10" type="car" /><vehicle id="trip_141" depart="505.0" route="route_S2TL_TL2N" departLane="random" departSpeed="10" type="car" /><vehicle id="trip_142" depart="506.0" route="route_W2TL_TL2E" departLane="random" departSpeed="10" type="car" /><vehicle id="trip_143" depart="508.0" route="route_S2TL_TL2W" departLane="random" departSpeed="10" type="car" /><vehicle id="trip_144" depart="511.0" route="route_N2TL_TL2W" departLane="random" departSpeed="10" type="car" /><vehicle id="trip_145" depart="512.0" route="route_E2TL_TL2S" departLane="random" departSpeed="10" type="car" /><vehicle id="trip_146" depart="512.0" route="route_E2TL_TL2W" departLane="random" departSpeed="10" type="car" /><vehicle id="trip_147" depart="513.0" route="route_W2TL_TL2E" departLane="random" departSpeed="10" type="car" /><vehicle id="trip_148" depart="514.0" route="route_W2TL_TL2E" departLane="random" departSpeed="10" type="car" /><vehicle id="trip_149" depart="515.0" route="route_W2TL_TL2N" departLane="random" departSpeed="10" type="car" /><vehicle id="trip_150" depart="520.0" route="route_N2TL_TL2S" departLane="random" departSpeed="10" type="car" /><vehicle id="trip_151" depart="522.0" route="route_S2TL_TL2N" departLane="random" departSpeed="10" type="car" /><vehicle id="trip_152" depart="523.0" route="route_W2TL_TL2E" departLane="random" departSpeed="10" type="car" /><vehicle id="trip_153" depart="530.0" route="route_S2TL_TL2N" departLane="random" departSpeed="10" type="car" /><vehicle id="trip_154" depart="530.0" route="route_W2TL_TL2E" departLane="random" departSpeed="10" type="car" /><vehicle id="trip_155" depart="532.0" route="route_S2TL_TL2E" departLane="random" departSpeed="10" type="car" /><vehicle id="trip_156" depart="533.0" route="route_S2TL_TL2N" departLane="random" departSpeed="10" type="car" /><vehicle id="trip_157" depart="536.0" route="route_S2TL_TL2N" departLane="random" departSpeed="10" type="car" /><vehicle id="trip_158" depart="538.0" route="route_N2TL_TL2E" departLane="random" departSpeed="10" type="car" /><vehicle id="trip_159" depart="540.0" route="route_W2TL_TL2N" departLane="random" departSpeed="10" type="car" /><vehicle id="trip_160" depart="541.0" route="route_W2TL_TL2S" departLane="random" departSpeed="10" type="car" /><vehicle id="trip_161" depart="543.0" route="route_E2TL_TL2S" departLane="random" departSpeed="10" type="car" /><vehicle id="trip_162" depart="546.0" route="route_W2TL_TL2S" departLane="random" departSpeed="10" type="car" /><vehicle id="trip_163" depart="547.0" route="route_W2TL_TL2S" departLane="random" departSpeed="10" type="car" /><vehicle id="trip_164" depart="547.0" route="route_S2TL_TL2N" departLane="random" departSpeed="10" type="car" /><vehicle id="trip_165" depart="548.0" route="route_E2TL_TL2N" departLane="random" departSpeed="10" type="car" /><vehicle id="trip_166" depart="550.0" route="route_W2TL_TL2E" departLane="random" departSpeed="10" type="car" /><vehicle id="trip_167" depart="551.0" route="route_E2TL_TL2W" departLane="random" departSpeed="10" type="car" /><vehicle id="trip_168" depart="551.0" route="route_W2TL_TL2S" departLane="random" departSpeed="10" type="car" /><vehicle id="trip_169" depart="552.0" route="route_S2TL_TL2N" departLane="random" departSpeed="10" type="car" /><vehicle id="trip_170" depart="554.0" route="route_E2TL_TL2S" departLane="random" departSpeed="10" type="car" /><vehicle id="trip_171" depart="554.0" route="route_E2TL_TL2W" departLane="random" departSpeed="10" type="car" /><vehicle id="trip_172" depart="556.0" route="route_S2TL_TL2N" departLane="random" departSpeed="10" type="car" /><vehicle id="trip_173" depart="557.0" route="route_S2TL_TL2N" departLane="random" departSpeed="10" type="car" /><vehicle id="trip_174" depart="558.0" route="route_S2TL_TL2W" departLane="random" departSpeed="10" type="car" /><vehicle id="trip_175" depart="560.0" route="route_W2TL_TL2N" departLane="random" departSpeed="10" type="car" /><vehicle id="trip_176" depart="560.0" route="route_E2TL_TL2W" departLane="random" departSpeed="10" type="car" /><vehicle id="trip_177" depart="560.0" route="route_E2TL_TL2N" departLane="random" departSpeed="10" type="car" /><vehicle id="trip_178" depart="561.0" route="route_W2TL_TL2N" departLane="random" departSpeed="10" type="car" /><vehicle id="trip_179" depart="562.0" route="route_E2TL_TL2N" departLane="random" departSpeed="10" type="car" /><vehicle id="trip_180" depart="565.0" route="route_W2TL_TL2E" departLane="random" departSpeed="10" type="car" /><vehicle id="trip_181" depart="565.0" route="route_E2TL_TL2W" departLane="random" departSpeed="10" type="car" /><vehicle id="trip_182" depart="565.0" route="route_W2TL_TL2E" departLane="random" departSpeed="10" type="car" /><vehicle id="trip_183" depart="567.0" route="route_W2TL_TL2E" departLane="random" departSpeed="10" type="car" /><vehicle id="trip_184" depart="568.0" route="route_W2TL_TL2E" departLane="random" departSpeed="10" type="car" /><vehicle id="trip_185" depart="570.0" route="route_S2TL_TL2N" departLane="random" departSpeed="10" type="car" /><vehicle id="trip_186" depart="571.0" route="route_W2TL_TL2E" departLane="random" departSpeed="10" type="car" /><vehicle id="trip_187" depart="572.0" route="route_E2TL_TL2W" departLane="random" departSpeed="10" type="car" /><vehicle id="trip_188" depart="574.0" route="route_S2TL_TL2N" departLane="random" departSpeed="10" type="car" /><vehicle id="trip_189" depart="574.0" route="route_N2TL_TL2S" departLane="random" departSpeed="10" type="car" /><vehicle id="trip_190" depart="575.0" route="route_W2TL_TL2E" departLane="random" departSpeed="10" type="car" /><vehicle id="trip_191" depart="577.0" route="route_W2TL_TL2E" departLane="random" departSpeed="10" type="car" /><vehicle id="trip_192" depart="577.0" route="route_N2TL_TL2W" departLane="random" departSpeed="10" type="car" /><vehicle id="trip_193" depart="577.0" route="route_S2TL_TL2E" departLane="random" departSpeed="10" type="car" /><vehicle id="trip_194" depart="578.0" route="route_E2TL_TL2N" departLane="random" departSpeed="10" type="car" /><vehicle id="trip_195" depart="581.0" route="route_E2TL_TL2N" departLane="random" departSpeed="10" type="car" /><vehicle id="trip_196" depart="582.0" route="route_S2TL_TL2N" departLane="random" departSpeed="10" type="car" /><vehicle id="trip_197" depart="582.0" route="route_N2TL_TL2W" departLane="random" departSpeed="10" type="car" /><vehicle id="trip_198" depart="584.0" route="route_W2TL_TL2E" departLane="random" departSpeed="10" type="car" /><vehicle id="trip_199" depart="585.0" route="route_S2TL_TL2N" departLane="random" departSpeed="10" type="car" /><vehicle id="trip_200" depart="586.0" route="route_E2TL_TL2W" departLane="random" departSpeed="10" type="car" /><vehicle id="trip_201" depart="586.0" route="route_N2TL_TL2S" departLane="random" departSpeed="10" type="car" /><vehicle id="trip_202" depart="591.0" route="route_W2TL_TL2E" departLane="random" departSpeed="10" type="car" /><vehicle id="trip_203" depart="594.0" route="route_S2TL_TL2E" departLane="random" departSpeed="10" type="car" /><vehicle id="trip_204" depart="594.0" route="route_E2TL_TL2N" departLane="random" departSpeed="10" type="car" /><vehicle id="trip_205" depart="596.0" route="route_W2TL_TL2E" departLane="random" departSpeed="10" type="car" /><vehicle id="trip_206" depart="597.0" route="route_W2TL_TL2E" departLane="random" departSpeed="10" type="car" /><vehicle id="trip_207" depart="597.0" route="route_E2TL_TL2S" departLane="random" departSpeed="10" type="car" /><vehicle id="trip_208" depart="599.0" route="route_S2TL_TL2E" departLane="random" departSpeed="10" type="car" /><vehicle id="trip_209" depart="599.0" route="route_N2TL_TL2S" departLane="random" departSpeed="10" type="car" /><vehicle id="trip_210" depart="603.0" route="route_W2TL_TL2E" departLane="random" departSpeed="10" type="car" /><vehicle id="trip_211" depart="605.0" route="route_N2TL_TL2S" departLane="random" departSpeed="10" type="car" /><vehicle id="trip_212" depart="606.0" route="route_E2TL_TL2W" departLane="random" departSpeed="10" type="car" /><vehicle id="trip_213" depart="608.0" route="route_N2TL_TL2W" departLane="random" departSpeed="10" type="car" /><vehicle id="trip_214" depart="609.0" route="route_W2TL_TL2S" departLane="random" departSpeed="10" type="car" /><vehicle id="trip_215" depart="610.0" route="route_E2TL_TL2S" departLane="random" departSpeed="10" type="car" /><vehicle id="trip_216" depart="611.0" route="route_E2TL_TL2W" departLane="random" departSpeed="10" type="car" /><vehicle id="trip_217" depart="612.0" route="route_S2TL_TL2N" departLane="random" departSpeed="10" type="car" /><vehicle id="trip_218" depart="613.0" route="route_W2TL_TL2E" departLane="random" departSpeed="10" type="car" /><vehicle id="trip_219" depart="617.0" route="route_S2TL_TL2E" departLane="random" departSpeed="10" type="car" /><vehicle id="trip_220" depart="617.0" route="route_N2TL_TL2S" departLane="random" departSpeed="10" type="car" /><vehicle id="trip_221" depart="621.0" route="route_W2TL_TL2E" departLane="random" departSpeed="10" type="car" /><vehicle id="trip_222" depart="621.0" route="route_W2TL_TL2E" departLane="random" departSpeed="10" type="car" /><vehicle id="trip_223" depart="622.0" route="route_E2TL_TL2S" departLane="random" departSpeed="10" type="car" /><vehicle id="trip_224" depart="623.0" route="route_W2TL_TL2E" departLane="random" departSpeed="10" type="car" /><vehicle id="trip_225" depart="625.0" route="route_E2TL_TL2W" departLane="random" departSpeed="10" type="car" /><vehicle id="trip_226" depart="627.0" route="route_N2TL_TL2S" departLane="random" departSpeed="10" type="car" /><vehicle id="trip_227" depart="630.0" route="route_W2TL_TL2E" departLane="random" departSpeed="10" type="car" /><vehicle id="trip_228" depart="631.0" route="route_N2TL_TL2S" departLane="random" departSpeed="10" type="car" /><vehicle id="trip_229" depart="631.0" route="route_W2TL_TL2E" departLane="random" departSpeed="10" type="car" /><vehicle id="trip_230" depart="635.0" route="route_E2TL_TL2W" departLane="random" departSpeed="10" type="car" /><vehicle id="trip_231" depart="635.0" route="route_W2TL_TL2E" departLane="random" departSpeed="10" type="car" /><vehicle id="trip_232" depart="638.0" route="route_E2TL_TL2W" departLane="random" departSpeed="10" type="car" /><vehicle id="trip_233" depart="639.0" route="route_E2TL_TL2W" departLane="random" departSpeed="10" type="car" /><vehicle id="trip_234" depart="642.0" route="route_N2TL_TL2W" departLane="random" departSpeed="10" type="car" /><vehicle id="trip_235" depart="645.0" route="route_N2TL_TL2S" departLane="random" departSpeed="10" type="car" /><vehicle id="trip_236" depart="646.0" route="route_S2TL_TL2E" departLane="random" departSpeed="10" type="car" /><vehicle id="trip_237" depart="649.0" route="route_W2TL_TL2N" departLane="random" departSpeed="10" type="car" /><vehicle id="trip_238" depart="649.0" route="route_S2TL_TL2W" departLane="random" departSpeed="10" type="car" /><vehicle id="trip_239" depart="649.0" route="route_E2TL_TL2N" departLane="random" departSpeed="10" type="car" /><vehicle id="trip_240" depart="651.0" route="route_N2TL_TL2S" departLane="random" departSpeed="10" type="car" /><vehicle id="trip_241" depart="655.0" route="route_S2TL_TL2E" departLane="random" departSpeed="10" type="car" /><vehicle id="trip_242" depart="656.0" route="route_N2TL_TL2W" departLane="random" departSpeed="10" type="car" /><vehicle id="trip_243" depart="657.0" route="route_S2TL_TL2W" departLane="random" departSpeed="10" type="car" /><vehicle id="trip_244" depart="658.0" route="route_N2TL_TL2W" departLane="random" departSpeed="10" type="car" /><vehicle id="trip_245" depart="659.0" route="route_E2TL_TL2S" departLane="random" departSpeed="10" type="car" /><vehicle id="trip_246" depart="664.0" route="route_E2TL_TL2W" departLane="random" departSpeed="10" type="car" /><vehicle id="trip_247" depart="665.0" route="route_W2TL_TL2E" departLane="random" departSpeed="10" type="car" /><vehicle id="trip_248" depart="668.0" route="route_N2TL_TL2S" departLane="random" departSpeed="10" type="car" /><vehicle id="trip_249" depart="669.0" route="route_W2TL_TL2E" departLane="random" departSpeed="10" type="car" /><vehicle id="trip_250" depart="669.0" route="route_W2TL_TL2S" departLane="random" departSpeed="10" type="car" /><vehicle id="trip_251" depart="669.0" route="route_S2TL_TL2N" departLane="random" departSpeed="10" type="car" /><vehicle id="trip_252" depart="670.0" route="route_S2TL_TL2N" departLane="random" departSpeed="10" type="car" /><vehicle id="trip_253" depart="671.0" route="route_S2TL_TL2N" departLane="random" departSpeed="10" type="car" /><vehicle id="trip_254" depart="673.0" route="route_N2TL_TL2S" departLane="random" departSpeed="10" type="car" /><vehicle id="trip_255" depart="674.0" route="route_W2TL_TL2N" departLane="random" departSpeed="10" type="car" /><vehicle id="trip_256" depart="676.0" route="route_N2TL_TL2W" departLane="random" departSpeed="10" type="car" /><vehicle id="trip_257" depart="679.0" route="route_W2TL_TL2N" departLane="random" departSpeed="10" type="car" /><vehicle id="trip_258" depart="679.0" route="route_N2TL_TL2S" departLane="random" departSpeed="10" type="car" /><vehicle id="trip_259" depart="683.0" route="route_W2TL_TL2E" departLane="random" departSpeed="10" type="car" /><vehicle id="trip_260" depart="683.0" route="route_W2TL_TL2E" departLane="random" departSpeed="10" type="car" /><vehicle id="trip_261" depart="685.0" route="route_S2TL_TL2N" departLane="random" departSpeed="10" type="car" /><vehicle id="trip_262" depart="685.0" route="route_N2TL_TL2