<?xml version='1.0' encoding='UTF-8'?>
<routes><route id="route_E2TL_TL2N" edges="E2TL TL2N" /><route id="route_E2TL_TL2S" edges="E2TL TL2S" /><route id="route_E2TL_TL2W" edges="E2TL TL2W" /><route id="route_N2TL_TL2E" edges="N2TL TL2E" /><route id="route_N2TL_TL2S" edges="N2TL TL2S" /><route id="route_N2TL_TL2W" edges="N2TL TL2W" /><route id="route_S2TL_TL2E" edges="S2TL TL2E" /><route id="route_S2TL_TL2N" edges="S2TL TL2N" /><route id="route_S2TL_TL2W" edges="S2TL TL2W" /><route id="route_W2TL_TL2E" edges="W2TL TL2E" /><route id="route_W2TL_TL2N" edges="W2TL TL2N" /><route id="route_W2TL_TL2S" edges="W2TL TL2S" /><vType id="car" accel="2.6" decel="4.5" sigma="0.5" length="5" minGap="2.5" maxSpeed="50" /><vehicle id="trip_0" depart="26.0" route="route_W2TL_TL2S" departLane="random" departSpeed="10" type="car" /><vehicle id="trip_1" depart="34.0" route="route_W2TL_TL2N" departLane="random" departSpeed="10" type="car" /><vehicle id="trip_2" depart="52.0" route="route_E2TL_TL2S" departLane="random" departSpeed="10" type="car" /><vehicle id="trip_3" depart="68.0" route="route_E2TL_TL2S" departLane="random" departSpeed="10" type="car" /><vehicle id="trip_4" depart="72.0" route="route_W2TL_TL2E" departLane="random" departSpeed="10" type="car" /><vehicle id="trip_5" depart="74.0" route="route_S2TL_TL2W" departLane="random" departSpeed="10" type="car" /><vehicle id="trip_6" depart="76.0" route="route_S2TL_TL2N" departLane="random" departSpeed="10" type="car" /><vehicle id="trip_7" depart="76.0" route="route_N2TL_TL2S" departLane="random" departSpeed="10" type="car" /><vehicle id="trip_8" depart="86.0" route="route_S2TL_TL2N" departLane="random" departSpeed="10" type="car" /><vehicle id="trip_9" depart="100.0" route="route_S2TL_TL2N" departLane="random" departSpeed="10" type="car" /><vehicle id="trip_10" depart="105.0" route="route_S2TL_TL2N" departLane="random" departSpeed="10" type="car" /><vehicle id="trip_11" depart="107.0" route="route_E2TL_TL2W" departLane="random" departSpeed="10" type="car" /><vehicle id="trip_12" depart="110.0" route="route_N2TL_TL2S" departLane="random" departSpeed="10" type="car" /><vehicle id="trip_13" depart="113.0" route="route_N2TL_TL2S" departLane="random" departSpeed="10" type="car" /><vehicle id="trip_14" depart="114.0" route="route_S2TL_TL2W" departLane="random" departSpeed="10" type="car" /><vehicle id="trip_15" depart="115.0" route="route_W2TL_TL2S" departLane="random" departSpeed="10" type="car" /><vehicle id="trip_16" depart="115.0" route="route_W2TL_TL2N" departLane="random" departSpeed="10" type="car" /><vehicle id="trip_17" depart="115.0" route="route_S2TL_TL2E" departLane="random" departSpeed="10" type="car" /><vehicle id="trip_18" depart="116.0" route="route_N2TL_TL2S" departLane="random" departSpeed="10" type="car" /><vehicle id="trip_19" depart="116.0" route="route_N2TL_TL2E" departLane="random" departSpeed="10" type="car" /><vehicle id="trip_20" depart="120.0" route="route_E2TL_TL2N" departLane="random" departSpeed="10" type="car" /><vehicle id="trip_21" depart="125.0" route="route_E2TL_TL2N" departLane="random" departSpeed="10" type="car" /><vehicle id="trip_22" depart="131.0" route="route_N2TL_TL2W" departLane="random" departSpeed="10" type="car" /><vehicle id="trip_23" depart="132.0" route="route_N2TL_TL2S" departLane="random" departSpeed="10" type="car" /><vehicle id="trip_24" depart="136.0" route="route_N2TL_TL2S" departLane="random" departSpeed="10" type="car" /><vehicle id="trip_25" depart="138.0" route="route_W2TL_TL2E" departLane="random" departSpeed="10" type="car" /><vehicle id="trip_26" depart="139.0" route="route_S2TL_TL2E" departLane="random" departSpeed="10" type="car" /><vehicle id="trip_27" depart="140.0" route="route_S2TL_TL2N" departLane="random" departSpeed="10" type="car" /><vehicle id="trip_28" depart="147.0" route="route_E2TL_TL2W" departLane="random" departSpeed="10" type="car" /><vehicle id="trip_29" depart="150.0" route="route_E2TL_TL2N" departLane="random" departSpeed="10" type="car" /><vehicle id="trip_30" depart="152.0" route="route_N2TL_TL2S" departLane="random" departSpeed="10" type="car" /><vehicle id="trip_31" depart="158.0" route="route_E2TL_TL2W" departLane="random" departSpeed="10" type="car" /><vehicle id="trip_32" depart="159.0" route="route_S2TL_TL2E" departLane="random" departSpeed="10" type="car" /><vehicle id="trip_33" depart="163.0" route="route_W2TL_TL2S" departLane="random" departSpeed="10" type="car" /><vehicle id="trip_34" depart="163.0" route="route_S2TL_TL2N" departLane="random" departSpeed="10" type="car" /><vehicle id="trip_35" depart="164.0" route="route_E2TL_TL2W" departLane="random" departSpeed="10" type="car" /><vehicle id="trip_36" depart="164.0" route="route_W2TL_TL2E" departLane="random" departSpeed="10" type="car" /><vehicle id="trip_37" depart="167.0" route="route_W2TL_TL2E" departLane="random" departSpeed="10" type="car" /><vehicle id="trip_38" depart="170.0" route="route_S2TL_TL2W" departLane="random" departSpeed="10" type="car" /><vehicle id="trip_39" depart="171.0" route="route_W2TL_TL2N" departLane="random" departSpeed="10" type="car" /><vehicle id="trip_40" depart="173.0" route="route_W2TL_TL2E" departLane="random" departSpeed="10" type="car" /><vehicle id="trip_41" depart="173.0" route="route_W2TL_TL2E" departLane="random" departSpeed="10" type="car" /><vehicle id="trip_42" depart="174.0" route="route_N2TL_TL2S" departLane="random" departSpeed="10" type="car" /><vehicle id="trip_43" depart="176.0" route="route_W2TL_TL2S" departLane="random" departSpeed="10" type="car" /><vehicle id="trip_44" depart="177.0" route="route_W2TL_TL2S" departLane="random" departSpeed="10" type="car" /><vehicle id="trip_45" depart="178.0" route="route_E2TL_TL2W" departLane="random" departSpeed="10" type="car" /><vehicle id="trip_46" depart="178.0" route="route_W2TL_TL2E" departLane="random" departSpeed="10" type="car" /><vehicle id="trip_47" depart="180.0" route="route_S2TL_TL2W" departLane="random" departSpeed="10" type="car" /><vehicle id="trip_48" depart="183.0" route="route_N2TL_TL2W" departLane="random" departSpeed="10" type="car" /><vehicle id="trip_49" depart="184.0" route="route_S2TL_TL2E" departLane="random" departSpeed="10" type="car" /><vehicle id="trip_50" depart="186.0" route="route_N2TL_TL2W" departLane="random" departSpeed="10" type="car" /><vehicle id="trip_51" depart="187.0" route="route_W2TL_TL2N" departLane="random" departSpeed="10" type="car" /><vehicle id="trip_52" depart="189.0" route="route_S2TL_TL2E" departLane="random" departSpeed="10" type="car" /><vehicle id="trip_53" depart="189.0" route="route_W2TL_TL2E" departLane="random" departSpeed="10" type="car" /><vehicle id="trip_54" depart="190.0" route="route_N2TL_TL2S" departLane="random" departSpeed="10" type="car" /><vehicle id="trip_55" depart="193.0" route="route_W2TL_TL2E" departLane="random" departSpeed="10" type="car" /><vehicle id="trip_56" depart="193.0" route="route_W2TL_TL2E" departLane="random" departSpeed="10" type="car" /><vehicle id="trip_57" depart="194.0" route="route_N2TL_TL2W" departLane="random" departSpeed="10" type="car" /><vehicle id="trip_58" depart="195.0" route="route_S2TL_TL2N" departLane="random" departSpeed="10" type="car" /><vehicle id="trip_59" depart="199.0" route="route_W2TL_TL2N" departLane="random" departSpeed="10" type="car" /><vehicle id="trip_60" depart="200.0" route="route_S2TL_TL2W" departLane="random" departSpeed="10" type="car" /><vehicle id="trip_61" depart="205.0" route="route_N2TL_TL2W" departLane="random" departSpeed="10" type="car" /><vehicle id="trip_62" depart="207.0" route="route_E2TL_TL2W" departLane="random" departSpeed="10" type="car" /><vehicle id="trip_63" depart="207.0" route="route_N2TL_TL2S" departLane="random" departSpeed="10" type="car" /><vehicle id="trip_64" depart="208.0" route="route_S2TL_TL2N" departLane="random" departSpeed="10" type="car" /><vehicle id="trip_65" depart="209.0" route="route_E2TL_TL2W" departLane="random" departSpeed="10" type="car" /><vehicle id="trip_66" depart="211.0" route="route_W2TL_TL2N" departLane="random" departSpeed="10" type="car" /><vehicle id="trip_67" depart="212.0" route="route_N2TL_TL2E" departLane="random" departSpeed="10" type="car" /><vehicle id="trip_68" depart="214.0" route="route_W2TL_TL2N" departLane="random" departSpeed="10" type="car" /><vehicle id="trip_69" depart="217.0" route="route_N2TL_TL2S" departLane="random" departSpeed="10" type="car" /><vehicle id="trip_70" depart="219.0" route="route_W2TL_TL2S" departLane="random" departSpeed="10" type="car" /><vehicle id="trip_71" depart="223.0" route="route_S2TL_TL2W" departLane="random" departSpeed="10" type="car" /><vehicle id="trip_72" depart="225.0" route="route_S2TL_TL2E" departLane="random" departSpeed="10" type="car" /><vehicle id="trip_73" depart="226.0" route="route_S2TL_TL2E" departLane="random" departSpeed="10" type="car" /><vehicle id="trip_74" depart="227.0" route="route_S2TL_TL2N" departLane="random" departSpeed="10" type="car" /><vehicle id="trip_75" depart="229.0" route="route_S2TL_TL2N" departLane="random" departSpeed="10" type="car" /><vehicle id="trip_76" depart="229.0" route="route_N2TL_TL2S" departLane="random" departSpeed="10" type="car" /><vehicle id="trip_77" depart="231.0" route="route_E2TL_TL2W" departLane="random" departSpeed="10" type="car" /><vehicle id="trip_78" depart="232.0" route="route_S2TL_TL2E" departLane="random" departSpeed="10" type="car" /><vehicle id="trip_79" depart="235.0" route="route_W2TL_TL2N" departLane="random" departSpeed="10" type="car" /><vehicle id="trip_80" depart="236.0" route="route_S2TL_TL2N" departLane="random" departSpeed="10" type="car" /><vehicle id="trip_81" depart="238.0" route="route_E2TL_TL2S" departLane="random" departSpeed="10" type="car" /><vehicle id="trip_82" depart="240.0" route="route_W2TL_TL2E" departLane="random" departSpeed="10" type="car" /><vehicle id="trip_83" depart="240.0" route="route_S2TL_TL2W" departLane="random" departSpeed="10" type="car" /><vehicle id="trip_84" depart="241.0" route="route_W2TL_TL2N" departLane="random" departSpeed="10" type="car" /><vehicle id="trip_85" depart="241.0" route="route_E2TL_TL2W" departLane="random" departSpeed="10" type="car" /><vehicle id="trip_86" depart="241.0" route="route_S2TL_TL2W" departLane="random" departSpeed="10" type="car" /><vehicle id="trip_87" depart="246.0" route="route_E2TL_TL2S" departLane="random" departSpeed="10" type="car" /><vehicle id="trip_88" depart="248.0" route="route_S2TL_TL2N" departLane="random" departSpeed="10" type="car" /><vehicle id="trip_89" depart="248.0" route="route_N2TL_TL2E" departLane="random" departSpeed="10" type="car" /><vehicle id="trip_90" depart="250.0" route="route_E2TL_TL2W" departLane="random" departSpeed="10" type="car" /><vehicle id="trip_91" depart="251.0" route="route_W2TL_TL2E" departLane="random" departSpeed="10" type="car" /><vehicle id="trip_92" depart="251.0" route="route_E2TL_TL2W" departLane="random" departSpeed="10" type="car" /><vehicle id="trip_93" depart="253.0" route="route_S2TL_TL2E" departLane="random" departSpeed="10" type="car" /><vehicle id="trip_94" depart="254.0" route="route_W2TL_TL2E" departLane="random" departSpeed="10" type="car" /><vehicle id="trip_95" depart="256.0" route="route_E2TL_TL2W" departLane="random" departSpeed="10" type="car" /><vehicle id="trip_96" depart="256.0" route="route_E2TL_TL2W" departLane="random" departSpeed="10" type="car" /><vehicle id="trip_97" depart="259.0" route="route_W2TL_TL2E" departLane="random" departSpeed="10" type="car" /><vehicle id="trip_98" depart="262.0" route="route_N2TL_TL2S" departLane="random" departSpeed="10" type="car" /><vehicle id="trip_99" depart="265.0" route="route_S2TL_TL2W" departLane="random" departSpeed="10" type="car" /><vehicle id="trip_100" depart="266.0" route="route_E2TL_TL2N" departLane="random" departSpeed="10" type="car" /><vehicle id="trip_101" depart="273.0" route="route_N2TL_TL2S" departLane="random" departSpeed="10" type="car" /><vehicle id="trip_102" depart="273.0" route="route_E2TL_TL2W" departLane="random" departSpeed="10" type="car" /><vehicle id="trip_103" depart="275.0" route="route_S2TL_TL2N" departLane="random" departSpeed="10" type="car" /><vehicle id="trip_104" depart="276.0" route="route_E2TL_TL2S" departLane="random" departSpeed="10" type="car" /><vehicle id="trip_105" depart="277.0" route="route_W2TL_TL2S" departLane="random" departSpeed="10" type="car" /><vehicle id="trip_106" depart="279.0" route="route_E2TL_TL2N" departLane="random" departSpeed="10" type="car" /><vehicle id="trip_107" depart="279.0" route="route_S2TL_TL2W" departLane="random" departSpeed="10" type="car" /><vehicle id="trip_108" depart="280.0" route="route_E2TL_TL2N" departLane="random" departSpeed="10" type="car" /><vehicle id="trip_109" depart="280.0" route="route_N2TL_TL2E" departLane="random" departSpeed="10" type="car" /><vehicle id="trip_110" depart="281.0" route="route_W2TL_TL2E" departLane="random" departSpeed="10" type="car" /><vehicle id="trip_111" depart="283.0" route="route_E2TL_TL2W" departLane="random" departSpeed="10" type="car" /><vehicle id="trip_112" depart="283.0" route="route_E2TL_TL2W" departLane="random" departSpeed="10" type="car" /><vehicle id="trip_113" depart="283.0" route="route_S2TL_TL2N" departLane="random" departSpeed="10" type="car" /><vehicle id="trip_114" depart="284.0" route="route_N2TL_TL2S" departLane="random" departSpeed="10" type="car" /><vehicle id="trip_115" depart="287.0" route="route_E2TL_TL2N" departLane="random" departSpeed="10" type="car" /><vehicle id="trip_116" depart="288.0" route="route_W2TL_TL2S" departLane="random" departSpeed="10" type="car" /><vehicle id="trip_117" depart="289.0" route="route_E2TL_TL2W" departLane="random" departSpeed="10" type="car" /><vehicle id="trip_118" depart="290.0" route="route_E2TL_TL2N" departLane="random" departSpeed="10" type="car" /><vehicle id="trip_119" depart="294.0" route="route_N2TL_TL2S" departLane="random" departSpeed="10" type="car" /><vehicle id="trip_120" depart="295.0" route="route_S2TL_TL2N" departLane="random" departSpeed="10" type="car" /><vehicle id="trip_121" depart="297.0" route="route_S2TL_TL2W" departLane="random" departSpeed="10" type="car" /><vehicle id="trip_122" depart="297.0" route="route_E2TL_TL2W" departLane="random" departSpeed="10" type="car" /><vehicle id="trip_123" depart="299.0" route="route_N2TL_TL2S" departLane="random" departSpeed="10" type="car" /><vehicle id="trip_124" depart="300.0" route="route_E2TL_TL2N" departLane="random" departSpeed="10" type="car" /><vehicle id="trip_125" depart="302.0" route="route_N2TL_TL2S" departLane="random" departSpeed="10" type="car" /><vehicle id="trip_126" depart="302.0" route="route_W2TL_TL2E" departLane="random" departSpeed="10" type="car" /><vehicle id="trip_127" depart="303.0" route="route_S2TL_TL2W" departLane="random" departSpeed="10" type="car" /><vehicle id="trip_128" depart="304.0" route="route_W2TL_TL2N" departLane="random" departSpeed="10" type="car" /><vehicle id="trip_129" depart="306.0" route="route_W2TL_TL2E" departLane="random" departSpeed="10" type="car" /><vehicle id="trip_130" depart="306.0" route="route_W2TL_TL2E" departLane="random" departSpeed="10" type="car" /><vehicle id="trip_131" depart="309.0" route="route_S2TL_TL2W" departLane="random" departSpeed="10" type="car" /><vehicle id="trip_132" depart="309.0" route="route_N2TL_TL2W" departLane="random" departSpeed="10" type="car" /><vehicle id="trip_133" depart="310.0" route="route_E2TL_TL2W" departLane="random" departSpeed="10" type="car" /><vehicle id="trip_134" depart="312.0" route="route_S2TL_TL2N" departLane="random" departSpeed="10" type="car" /><vehicle id="trip_135" depart="313.0" route="route_N2TL_TL2S" departLane="random" departSpeed="10" type="car" /><vehicle id="trip_136" depart="313.0" route="route_E2TL_TL2W" departLane="random" departSpeed="10" type="car" /><vehicle id="trip_137" depart="314.0" route="route_N2TL_TL2S" departLane="random" departSpeed="10" type="car" /><vehicle id="trip_138" depart="316.0" route="route_W2TL_TL2E" departLane="random" departSpeed="10" type="car" /><vehicle id="trip_139" depart="319.0" route="route_E2TL_TL2W" departLane="random" departSpeed="10" type="car" /><vehicle id="trip_140" depart="319.0" route="route_S2TL_TL2N" departLane="random" departSpeed="10" type="car" /><vehicle id="trip_141" depart="320.0" route="route_N2TL_TL2S" departLane="random" departSpeed="10" type="car" /><vehicle id="trip_142" depart="321.0" route="route_S2TL_TL2E" departLane="random" departSpeed="10" type="car" /><vehicle id="trip_143" depart="323.0" route="route_E2TL_TL2W" departLane="random" departSpeed="10" type="car" /><vehicle id="trip_144" depart="323.0" route="route_W2TL_TL2S" departLane="random" departSpeed="10" type="car" /><vehicle id="trip_145" depart="324.0" route="route_N2TL_TL2E" departLane="random" departSpeed="10" type="car" /><vehicle id="trip_146" depart="325.0" route="route_S2TL_TL2N" departLane="random" departSpeed="10" type="car" /><vehicle id="trip_147" depart="325.0" route="route_N2TL_TL2S" departLane="random" departSpeed="10" type="car" /><vehicle id="trip_148" depart="327.0" route="route_E2TL_TL2N" departLane="random" departSpeed="10" type="car" /><vehicle id="trip_149" depart="327.0" route="route_S2TL_TL2N" departLane="random" departSpeed="10" type="car" /><vehicle id="trip_150" depart="333.0" route="route_E2TL_TL2W" departLane="random" departSpeed="10" type="car" /><vehicle id="trip_151" depart="334.0" route="route_E2TL_TL2S" departLane="random" departSpeed="10" type="car" /><vehicle id="trip_152" depart="335.0" route="route_E2TL_TL2N" departLane="random" departSpeed="10" type="car" /><vehicle id="trip_153" depart="335.0" route="route_E2TL_TL2W" departLane="random" departSpeed="10" type="car" /><vehicle id="trip_154" depart="335.0" route="route_E2TL_TL2S" departLane="random" departSpeed="10" type="car" /><vehicle id="trip_155" depart="336.0" route="route_S2TL_TL2N" departLane="random" departSpeed="10" type="car" /><vehicle id="trip_156" depart="336.0" route="route_S2TL_TL2E" departLane="random" departSpeed="10" type="car" /><vehicle id="trip_157" depart="336.0" route="route_W2TL_TL2S" departLane="random" departSpeed="10" type="car" /><vehicle id="trip_158" depart="338.0" route="route_W2TL_TL2N" departLane="random" departSpeed="10" type="car" /><vehicle id="trip_159" depart="339.0" route="route_W2TL_TL2S" departLane="random" departSpeed="10" type="car" /><vehicle id="trip_160" depart="340.0" route="route_E2TL_TL2W" departLane="random" departSpeed="10" type="car" /><vehicle id="trip_161" depart="343.0" route="route_N2TL_TL2S" departLane="random" departSpeed="10" type="car" /><vehicle id="trip_162" depart="346.0" route="route_N2TL_TL2E" departLane="random" departSpeed="10" type="car" /><vehicle id="trip_163" depart="347.0" route="route_S2TL_TL2N" departLane="random" departSpeed="10" type="car" /><vehicle id="trip_164" depart="347.0" route="route_S2TL_TL2N" departLane="random" departSpeed="10" type="car" /><vehicle id="trip_165" depart="348.0" route="route_W2TL_TL2E" departLane="random" departSpeed="10" type="car" /><vehicle id="trip_166" depart="348.0" route="route_S2TL_TL2W" departLane="random" departSpeed="10" type="car" /><vehicle id="trip_167" depart="350.0" route="route_N2TL_TL2E" departLane="random" departSpeed="10" type="car" /><vehicle id="trip_168" depart="350.0" route="route_N2TL_TL2S" departLane="random" departSpeed="10" type="car" /><vehicle id="trip_169" depart="351.0" route="route_S2TL_TL2E" departLane="random" departSpeed="10" type="car" /><vehicle id="trip_170" depart="352.0" route="route_E2TL_TL2N" departLane="random" departSpeed="10" type="car" /><vehicle id="trip_171" depart="353.0" route="route_E2TL_TL2N" departLane="random" departSpeed="10" type="car" /><vehicle id="trip_172" depart="355.0" route="route_N2TL_TL2S" departLane="random" departSpeed="10" type="car" /><vehicle id="trip_173" depart="358.0" route="route_E2TL_TL2W" departLane="random" departSpeed="10" type="car" /><vehicle id="trip_174" depart="358.0" route="route_S2TL_TL2W" departLane="random" departSpeed="10" type="car" /><vehicle id="trip_175" depart="359.0" route="route_E2TL_TL2W" departLane="random" departSpeed="10" type="car" /><vehicle id="trip_176" depart="359.0" route="route_E2TL_TL2S" departLane="random" departSpeed="10" type="car" /><vehicle id="trip_177" depart="361.0" route="route_E2TL_TL2W" departLane="random" departSpeed="10" type="car" /><vehicle id="trip_178" depart="364.0" route="route_E2TL_TL2W" departLane="random" departSpeed="10" type="car" /><vehicle id="trip_179" depart="364.0" route="route_E2TL_TL2W" departLane="random" departSpeed="10" type="car" /><vehicle id="trip_180" depart="365.0" route="route_S2TL_TL2E" departLane="random" departSpeed="10" type="car" /><vehicle id="trip_181" depart="367.0" route="route_N2TL_TL2W" departLane="random" departSpeed="10" type="car" /><vehicle id="trip_182" depart="368.0" route="route_N2TL_TL2S" departLane="random" departSpeed="10" type="car" /><vehicle id="trip_183" depart="369.0" route="route_S2TL_TL2N" departLane="random" departSpeed="10" type="car" /><vehicle id="trip_184" depart="369.0" route="route_E2TL_TL2W" departLane="random" departSpeed="10" type="car" /><vehicle id="trip_185" depart="370.0" route="route_W2TL_TL2N" departLane="random" departSpeed="10" type="car" /><vehicle id="trip_186" depart="371.0" route="route_W2TL_TL2S" departLane="random" departSpeed="10" type="car" /><vehicle id="trip_187" depart="371.0" route="route_S2TL_TL2W" departLane="random" departSpeed="10" type="car" /><vehicle id="trip_188" depart="371.0" route="route_N2TL_TL2S" departLane="random" departSpeed="10" type="car" /><vehicle id="trip_189" depart="373.0" route="route_S2TL_TL2E" departLane="random" departSpeed="10" type="car" /><vehicle id="trip_190" depart="374.0" route="route_S2TL_TL2N" departLane="random" departSpeed="10" type="car" /><vehicle id="trip_191" depart="377.0" route="route_E2TL_TL2S" departLane="random" departSpeed="10" type="car" /><vehicle id="trip_192" depart="377.0" route="route_N2TL_TL2S" departLane="random" departSpeed="10" type="car" /><vehicle id="trip_193" depart="378.0" route="route_S2TL_TL2E" departLane="random" departSpeed="10" type="car" /><vehicle id="trip_194" depart="378.0" route="route_E2TL_TL2W" departLane="random" departSpeed="10" type="car" /><vehicle id="trip_195" depart="378.0" route="route_E2TL_TL2S" departLane="random" departSpeed="10" type="car" /><vehicle id="trip_196" depart="378.0" route="route_W2TL_TL2E" departLane="random" departSpeed="10" type="car" /><vehicle id="trip_197" depart="379.0" route="route_N2TL_TL2S" departLane="random" departSpeed="10" type="car" /><vehicle id="trip_198" depart="379.0" route="route_S2TL_TL2E" departLane="random" departSpeed="10" type="car" /><vehicle id="trip_199" depart="379.0" route="route_W2TL_TL2N" departLane="random" departSpeed="10" type="car" /><vehicle id="trip_200" depart="381.0" route="route_S2TL_TL2N" departLane="random" departSpeed="10" type="car" /><vehicle id="trip_201" depart="383.0" route="route_N2TL_TL2E" departLane="random" departSpeed="10" type="car" /><vehicle id="trip_202" depart="383.0" route="route_W2TL_TL2S" departLane="random" departSpeed="10" type="car" /><vehicle id="trip_203" depart="385.0" route="route_N2TL_TL2S" departLane="random" departSpeed="10" type="car" /><vehicle id="trip_204" depart="385.0" route="route_E2TL_TL2N" departLane="random" departSpeed="10" type="car" /><vehicle id="trip_205" depart="387.0" route="route_S2TL_TL2N" departLane="random" departSpeed="10" type="car" /><vehicle id="trip_206" depart="387.0" route="route_E2TL_TL2W" departLane="random" departSpeed="10" type="car" /><vehicle id="trip_207" depart="387.0" route="route_N2TL_TL2S" departLane="random" departSpeed="10" type="car" /><vehicle id="trip_208" depart="388.0" route="route_W2TL_TL2E" departLane="random" departSpeed="10" type="car" /><vehicle id="trip_209" depart="389.0" route="route_S2TL_TL2N" departLane="random" departSpeed="10" type="car" /><vehicle id="trip_210" depart="389.0" route="route_E2TL_TL2N" departLane="random" departSpeed="10" type="car" /><vehicle id="trip_211" depart="389.0" route="route_N2TL_TL2W" departLane="random" departSpeed="10" type="car" /><vehicle id="trip_212" depart="392.0" route="route_N2TL_TL2S" departLane="random" departSpeed="10" type="car" /><vehicle id="trip_213" depart="393.0" route="route_N2TL_TL2W" departLane="random" departSpeed="10" type="car" /><vehicle id="trip_214" depart="393.0" route="route_E2TL_TL2W" departLane="random" departSpeed="10" type="car" /><vehicle id="trip_215" depart="393.0" route="route_S2TL_TL2N" departLane="random" departSpeed="10" type="car" /><vehicle id="trip_216" depart="394.0" route="route_E2TL_TL2S" departLane="random" departSpeed="10" type="car" /><vehicle id="trip_217" depart="395.0" route="route_N2TL_TL2E" departLane="random" departSpeed="10" type="car" /><vehicle id="trip_218" depart="396.0" route="route_N2TL_TL2S" departLane="random" departSpeed="10" type="car" /><vehicle id="trip_219" depart="396.0" route="route_W2TL_TL2N" departLane="random" departSpeed="10" type="car" /><vehicle id="trip_220" depart="397.0" route="route_E2TL_TL2S" departLane="random" departSpeed="10" type="car" /><vehicle id="trip_221" depart="399.0" route="route_W2TL_TL2E" departLane="random" departSpeed="10" type="car" /><vehicle id="trip_222" depart="402.0" route="route_E2TL_TL2W" departLane="random" departSpeed="10" type="car" /><vehicle id="trip_223" depart="403.0" route="route_S2TL_TL2N" departLane="random" departSpeed="10" type="car" /><vehicle id="trip_224" depart="403.0" route="route_N2TL_TL2S" departLane="random" departSpeed="10" type="car" /><vehicle id="trip_225" depart="403.0" route="route_N2TL_TL2W" departLane="random" departSpeed="10" type="car" /><vehicle id="trip_226" depart="403.0" route="route_W2TL_TL2E" departLane="random" departSpeed="10" type="car" /><vehicle id="trip_227" depart="406.0" route="route_N2TL_TL2S" departLane="random" departSpeed="10" type="car" /><vehicle id="trip_228" depart="406.0" route="route_E2TL_TL2W" departLane="random" departSpeed="10" type="car" /><vehicle id="trip_229" depart="407.0" route="route_E2TL_TL2W" departLane="random" departSpeed="10" type="car" /><vehicle id="trip_230" depart="407.0" route="route_E2TL_TL2S" departLane="random" departSpeed="10" type="car" /><vehicle id="trip_231" depart="407.0" route="route_W2TL_TL2E" departLane="random" departSpeed="10" type="car" /><vehicle id="trip_232" depart="408.0" route="route_S2TL_TL2N" departLane="random" departSpeed="10" type="car" /><vehicle id="trip_233" depart="409.0" route="route_W2TL_TL2S" departLane="random" departSpeed="10" type="car" /><vehicle id="trip_234" depart="410.0" route="route_S2TL_TL2N" departLane="random" departSpeed="10" type="car" /><vehicle id="trip_235" depart="410.0" route="route_E2TL_TL2N" departLane="random" departSpeed="10" type="car" /><vehicle id="trip_236" depart="410.0" route="route_S2TL_TL2N" departLane="random" departSpeed="10" type="car" /><vehicle id="trip_237" depart="410.0" route="route_W2TL_TL2E" departLane="random" departSpeed="10" type="car" /><vehicle id="trip_238" depart="415.0" route="route_S2TL_TL2W" departLane="random" departSpeed="10" type="car" /><vehicle id="trip_239" depart="415.0" route="route_N2TL_TL2W" departLane="random" departSpeed="10" type="car" /><vehicle id="trip_240" depart="416.0" route="route_N2TL_TL2S" departLane="random" departSpeed="10" type="car" /><vehicle id="trip_241" depart="417.0" route="route_N2TL_TL2W" departLane="random" departSpeed="10" type="car" /><vehicle id="trip_242" depart="417.0" route="route_W2TL_TL2E" departLane="random" departSpeed="10" type="car" /><vehicle id="trip_243" depart="417.0" route="route_N2TL_TL2E" departLane="random" departSpeed="10" type="car" /><vehicle id="trip_244" depart="418.0" route="route_S2TL_TL2E" departLane="random" departSpeed="10" type="car" /><vehicle id="trip_245" depart="419.0" route="route_N2TL_TL2W" departLane="random" departSpeed="10" type="car" /><vehicle id="trip_246" depart="421.0" route="route_W2TL_TL2S" departLane="random" departSpeed="10" type="car" /><vehicle id="trip_247" depart="422.0" route="route_W2TL_TL2E" departLane="random" departSpeed="10" type="car" /><vehicle id="trip_248" depart="424.0" route="route_W2TL_TL2N" departLane="random" departSpeed="10" type="car" /><vehicle id="trip_249" depart="425.0" route="route_W2TL_TL2E" departLane="random" departSpeed="10" type="car" /><vehicle id="trip_250" depart="425.0" route="route_N2TL_TL2E" departLane="random" departSpeed="10" type="car" /><vehicle id="trip_251" depart="425.0" route="route_E2TL_TL2W" departLane="random" departSpeed="10" type="car" /><vehicle id="trip_252" depart="425.0" route="route_N2TL_TL2W" departLane="random" departSpeed="10" type="car" /><vehicle id="trip_253" depart="426.0" route="route_N2TL_TL2E" departLane="random" departSpeed="10" type="car" /><vehicle id="trip_254" depart="426.0" route="route_N2TL_TL2S" departLane="random" departSpeed="10" type="car" /><vehicle id="trip_255" depart="428.0" route="route_S2TL_TL2N" departLane="random" departSpeed="10" type="car" /><vehicle id="trip_256" depart="428.0" route="route_W2TL_TL2N" departLane="random" departSpeed="10" type="car" /><vehicle id="trip_257" depart="430.0" route="route_S2TL_TL2N" departLane="random" departSpeed="10" type="car" /><vehicle id="trip_258" depart="430.0" route="route_W2TL_TL2E" departLane="random" departSpeed="10" type="car" /><vehicle id="trip_259" depart="430.0" route="route_E2TL_TL2S" departLane="random" departSpeed="10" type="car" /><vehicle id="trip_260" depart="430.0" route="route_N2TL_TL2S" departLane="random" departSpeed="10" type="car" /><vehicle id="trip_261" depart="432.0" route="route_W2TL_TL2S" departLane="random" departSpeed="10" type="car" /><vehicle id="trip_262" depart="433.0" route="route_E2TL_TL2W